
=================
  PFLOTRAN v6.0
=================

"grid_structured_type" set to default value.
pflotran card:: NUMERICAL_METHODS
pflotran card:: GRID
pflotran card:: MATERIAL_PROPERTY
  Name :: soil1
pflotran card:: CHARACTERISTIC_CURVES
  Name :: default
 WARNING: Mualem-van Genuchten relative permeability function is being used without SMOOTH option.
pflotran card:: OUTPUT
"OUTPUT,SNAPSHOT_FILE,FORMAT,HDF5" set to default value.
pflotran card:: TIME
pflotran card:: REGION
all
pflotran card:: REGION
top
pflotran card:: REGION
bottom
pflotran card:: REGION
east
pflotran card:: REGION
west
pflotran card:: FLOW_CONDITION
initial
pflotran card:: FLOW_CONDITION
recharge
pflotran card:: FLOW_CONDITION
west
pflotran card:: FLOW_CONDITION
east
pflotran card:: INITIAL_CONDITION
"Initial Condition name" set to default value.
pflotran card:: BOUNDARY_CONDITION
pflotran card:: BOUNDARY_CONDITION
pflotran card:: BOUNDARY_CONDITION
pflotran card:: STRATA
pflotran card:: END_SUBSURFACE

Extent of Gridded Domain
 X: 0.000000E+00 - 3.000000E+02
 Y: 0.000000E+00 - 1.000000E+00
 Z: 0.000000E+00 - 1.500000E+01

Size of Gridded Domain
 Number of grid cells: 45000

Number of active grid cells: 45000
Number of inactive grid cells: 0


=+=+=+=+=+=+=+=+=+=+=+=+=+=+=+=+=+=+=+=+=+=+=+=+=+=+=+=+=+=+=+=+=+=+=+=+=+=+=+=+

  Initial Condition

--------------------------------------------------------------------------------
          Flow Condition:   initial
                  Region:   all
--------------------------------------------------------------------------------

  Flow Condition: initial
    Synchronize time with update: no
    Time units: yr
    Length units: m
      Datum:
        Dataset: Unnamed Ascii Dataset
          Type: dataset_ascii_type
          Transient: no
          Array Rank:  3

    Sub Condition: pressure
      Type: hydrostatic
      Gradient:
      Data:
        Dataset: Unnamed Ascii Dataset
          Type: dataset_ascii_type
          Transient: no
          Array Rank:  1

--------------------------------------------------------------------------------

=+=+=+=+=+=+=+=+=+=+=+=+=+=+=+=+=+=+=+=+=+=+=+=+=+=+=+=+=+=+=+=+=+=+=+=+=+=+=+=+

  Boundary Condition

--------------------------------------------------------------------------------
          Flow Condition:   recharge
                  Region:   top
--------------------------------------------------------------------------------

  Flow Condition: recharge
    Synchronize time with update: no
    Time units: yr
    Length units: m
      Datum:

    Sub Condition: pressure
      Type: neumann
      Gradient:
      Data:
        Dataset: Unnamed Ascii Dataset
          Type: dataset_ascii_type
          Is transient?: yes
          Number of times:     12
          Is cyclic?: no
          Buffer:
            Rank:  2
            Dims:    1  12
            Buffer Slice Size:   0
          Array Rank:  1

--------------------------------------------------------------------------------

=+=+=+=+=+=+=+=+=+=+=+=+=+=+=+=+=+=+=+=+=+=+=+=+=+=+=+=+=+=+=+=+=+=+=+=+=+=+=+=+

  Boundary Condition

--------------------------------------------------------------------------------
          Flow Condition:   east
                  Region:   east
--------------------------------------------------------------------------------

  Flow Condition: east
    Synchronize time with update: no
    Time units: yr
    Length units: m
      Datum:
        Dataset: Unnamed Ascii Dataset
          Type: dataset_ascii_type
          Transient: no
          Array Rank:  3

    Sub Condition: pressure
      Type: hydrostatic
      Gradient:
      Data:
        Dataset: Unnamed Ascii Dataset
          Type: dataset_ascii_type
          Transient: no
          Array Rank:  1

--------------------------------------------------------------------------------

=+=+=+=+=+=+=+=+=+=+=+=+=+=+=+=+=+=+=+=+=+=+=+=+=+=+=+=+=+=+=+=+=+=+=+=+=+=+=+=+

  Boundary Condition

--------------------------------------------------------------------------------
          Flow Condition:   west
                  Region:   west
--------------------------------------------------------------------------------

  Flow Condition: west
    Synchronize time with update: no
    Time units: yr
    Length units: m
      Datum:
        Dataset: Unnamed Ascii Dataset
          Type: dataset_ascii_type
          Transient: no
          Array Rank:  3

    Sub Condition: pressure
      Type: hydrostatic
      Gradient:
      Data:
        Dataset: Unnamed Ascii Dataset
          Type: dataset_ascii_type
          Transient: no
          Array Rank:  1

--------------------------------------------------------------------------------
Default HDF5 method is used in Initialization
  Beginning setup of FLOW SNES
 number of dofs =   1, number of phases =   1
 mode = Richards: p
  Finished setting up FLOW SNES

 Requested processors and decomposition =     1, npx,y,z=   -1  -1  -1
 Actual decomposition: npx,y,z=    1   1   1

Restarting with checkpoint file "./2D_SS_refinedmesh-restart.h5".
      Seconds to read from restart file:       0.10

FLOW Time Stepper SNES
      maximum number of steps: 999999
constant time steps threshold: 5
       maximum number of cuts: 16
             reduction factor: 5.000000E-01
        maximum growth factor: 2.000000E+00
                 acceleration: on
       acceleration threshold: 5
       number of ramp entries: 5
                ramp entry #1: 2.0000
                ramp entry #2: 2.0000
                ramp entry #3: 2.0000
                ramp entry #4: 2.0000
                ramp entry #5: 2.0000
                ramp entry #6: 1.8000
                ramp entry #7: 1.6000
                ramp entry #8: 1.4000
                ramp entry #9: 1.2000
               ramp entry #10: 1.0000
               ramp entry #11: 1.0000
               ramp entry #12: 1.0000
               ramp entry #13: 1.0000

FLOW Newton Solver
                         atol: 1.000000E-50
                         rtol: 1.000000E-08
                         stol: 1.000000E-08
                         dtol: 1.000000E+04
                      maxnorm: 1.000000E+20
                    inftolres: -9.990000E+02
                    inftolupd: -9.990000E+02
                 inftolrelupd: -9.990000E+02
                 inftolsclres: -9.990000E+02
                     max iter: 50
                     min iter: 1
                         maxf: 10000
                  matrix type: baij
         precond. matrix type: baij
               inexact newton: off
            print convergence: on
   print detailed convergence: off
          check infinity norm: on

FLOW Linear Solver
                       solver: bcgs
               preconditioner: ilu
                         atol: 1.000000E-50
                         rtol: 1.000000E-05
                         dtol: 1.000000E+04
            maximum iteration: 10000

 --> creating hdf5 output file: 2D_T_refinedmesh.h5
      0.04 Seconds to write HDF5 file.

 Finished Initialization


== RICHARDS FLOW ===============================================================
  0 2r: 9.99E-05 2x: 0.00E+00 2u: 0.00E+00 ir: 5.77E-06 iu: 0.00E+00 rsn:   0
  1 2r: 5.27E-06 2x: 3.27E+07 2u: 9.39E+03 ir: 3.36E-07 iu: 7.19E+02 rsn:   0
  2 2r: 1.38E-08 2x: 3.27E+07 2u: 2.99E+02 ir: 1.11E-09 iu: 3.29E+01 rsn:   0
  3 2r: 4.10E-13 2x: 3.27E+07 2u: 7.08E-01 ir: 1.10E-14 iu: 9.16E-02 rsn: rtol

 Step      1 Time=  1.14155E-04 Dt=  1.14155E-04 [y] conv_reason: 3
  newton =   3 [       3] linear =    55 [        55] cuts =  0 [   0]
  --> SNES Linear/Non-Linear Iterations = 55 / 3
  --> SNES Residual: 0.410028E-12 0.911173E-17 0.110469E-13
  --> max change: dpmx=   7.5218E+02

== RICHARDS FLOW ===============================================================
  0 2r: 4.88E-05 2x: 0.00E+00 2u: 0.00E+00 ir: 2.79E-06 iu: 0.00E+00 rsn:   0
  1 2r: 1.83E-06 2x: 3.27E+07 2u: 1.31E+04 ir: 1.62E-07 iu: 8.05E+02 rsn:   0
  2 2r: 4.63E-09 2x: 3.27E+07 2u: 3.42E+02 ir: 5.46E-10 iu: 3.55E+01 rsn:   0
  3 2r: 2.46E-13 2x: 3.27E+07 2u: 6.90E-01 ir: 5.12E-15 iu: 8.14E-02 rsn: rtol

 Step      2 Time=  3.42466E-04 Dt=  2.28311E-04 [y] conv_reason: 3
  newton =   3 [       6] linear =    91 [       146] cuts =  0 [   0]
  --> SNES Linear/Non-Linear Iterations = 91 / 3
  --> SNES Residual: 0.246162E-12 0.547027E-17 0.511993E-14
  --> max change: dpmx=   8.4091E+02

== RICHARDS FLOW ===============================================================
  0 2r: 3.32E-05 2x: 0.00E+00 2u: 0.00E+00 ir: 1.49E-06 iu: 0.00E+00 rsn:   0
  1 2r: 1.20E-06 2x: 3.27E+07 2u: 2.16E+04 ir: 1.01E-07 iu: 9.78E+02 rsn:   0
  2 2r: 3.11E-09 2x: 3.27E+07 2u: 5.73E+02 ir: 3.71E-10 iu: 4.94E+01 rsn:   0
  3 2r: 5.27E-13 2x: 3.27E+07 2u: 1.30E+00 ir: 7.45E-15 iu: 1.36E-01 rsn:   0
  4 2r: 1.17E-14 2x: 3.27E+07 2u: 2.69E-03 ir: 1.86E-16 iu: 2.94E-05 rsn: rtol

 Step      3 Time=  7.99087E-04 Dt=  4.56621E-04 [y] conv_reason: 3
  newton =   4 [      10] linear =   200 [       346] cuts =  0 [   0]
  --> SNES Linear/Non-Linear Iterations = 200 / 4
  --> SNES Residual: 0.117181E-13 0.260402E-18 0.186130E-15
  --> max change: dpmx=   1.0273E+03

== RICHARDS FLOW ===============================================================
  0 2r: 2.53E-05 2x: 0.00E+00 2u: 0.00E+00 ir: 8.61E-07 iu: 0.00E+00 rsn:   0
  1 2r: 1.70E-06 2x: 3.27E+07 2u: 4.11E+04 ir: 2.49E-07 iu: 1.23E+03 rsn:   0
  2 2r: 3.69E-09 2x: 3.27E+07 2u: 1.07E+03 ir: 9.67E-10 iu: 7.74E+01 rsn:   0
  3 2r: 1.37E-12 2x: 3.27E+07 2u: 3.83E+00 ir: 3.10E-14 iu: 3.07E-01 rsn:   0
  4 2r: 1.17E-14 2x: 3.27E+07 2u: 4.54E-03 ir: 1.89E-16 iu: 4.96E-05 rsn: rtol

 Step      4 Time=  1.71233E-03 Dt=  9.13242E-04 [y] conv_reason: 3
  newton =   4 [      14] linear =   245 [       591] cuts =  0 [   0]
  --> SNES Linear/Non-Linear Iterations = 245 / 4
  --> SNES Residual: 0.116687E-13 0.259304E-18 0.188787E-15
  --> max change: dpmx=   1.3055E+03

== RICHARDS FLOW ===============================================================
  0 2r: 2.14E-05 2x: 0.00E+00 2u: 0.00E+00 ir: 5.21E-07 iu: 0.00E+00 rsn:   0
  1 2r: 4.34E-06 2x: 3.26E+07 2u: 7.96E+04 ir: 6.26E-07 iu: 1.53E+03 rsn:   0
  2 2r: 5.89E-09 2x: 3.26E+07 2u: 2.02E+03 ir: 7.00E-10 iu: 1.24E+02 rsn:   0
  3 2r: 3.19E-12 2x: 3.26E+07 2u: 1.02E+01 ir: 2.87E-14 iu: 7.51E-01 rsn:   0
  4 2r: 1.16E-14 2x: 3.26E+07 2u: 4.02E-02 ir: 1.87E-16 iu: 2.69E-04 rsn: rtol

 Step      5 Time=  3.53881E-03 Dt=  1.82648E-03 [y] conv_reason: 3
  newton =   4 [      18] linear =   311 [       902] cuts =  0 [   0]
  --> SNES Linear/Non-Linear Iterations = 311 / 4
  --> SNES Residual: 0.116445E-13 0.258767E-18 0.187367E-15
  --> max change: dpmx=   1.6573E+03

== RICHARDS FLOW ===============================================================
  0 2r: 1.94E-05 2x: 0.00E+00 2u: 0.00E+00 ir: 3.65E-07 iu: 0.00E+00 rsn:   0
  1 2r: 1.02E-05 2x: 3.25E+07 2u: 1.48E+05 ir: 1.02E-06 iu: 1.85E+03 rsn:   0
  2 2r: 4.08E-08 2x: 3.25E+07 2u: 3.58E+03 ir: 1.86E-08 iu: 1.91E+02 rsn:   0
  3 2r: 5.77E-12 2x: 3.25E+07 2u: 2.20E+01 ir: 8.54E-14 iu: 1.77E+00 rsn:   0
  4 2r: 1.16E-14 2x: 3.25E+07 2u: 9.49E-02 ir: 1.88E-16 iu: 1.02E-03 rsn: rtol

 Step      6 Time=  7.19178E-03 Dt=  3.65297E-03 [y] conv_reason: 3
  newton =   4 [      22] linear =   370 [      1272] cuts =  0 [   0]
  --> SNES Linear/Non-Linear Iterations = 370 / 4
  --> SNES Residual: 0.116283E-13 0.258408E-18 0.187791E-15
  --> max change: dpmx=   2.0444E+03

== RICHARDS FLOW ===============================================================
  0 2r: 1.76E-05 2x: 0.00E+00 2u: 0.00E+00 ir: 3.46E-07 iu: 0.00E+00 rsn:   0
  1 2r: 1.93E-05 2x: 3.22E+07 2u: 2.56E+05 ir: 1.51E-06 iu: 2.06E+03 rsn:   0
  2 2r: 1.16E-07 2x: 3.22E+07 2u: 5.81E+03 ir: 3.42E-08 iu: 2.53E+02 rsn:   0
  3 2r: 1.36E-11 2x: 3.22E+07 2u: 5.84E+01 ir: 7.18E-13 iu: 3.21E+00 rsn:   0
  4 2r: 1.15E-14 2x: 3.22E+07 2u: 2.07E-01 ir: 1.84E-16 iu: 1.97E-03 rsn: rtol

 Step      7 Time=  1.44977E-02 Dt=  7.30594E-03 [y] conv_reason: 3
  newton =   4 [      26] linear =   487 [      1759] cuts =  0 [   0]
  --> SNES Linear/Non-Linear Iterations = 487 / 4
  --> SNES Residual: 0.115279E-13 0.256176E-18 0.184434E-15
  --> max change: dpmx=   2.3130E+03

== RICHARDS FLOW ===============================================================
  0 2r: 1.51E-05 2x: 0.00E+00 2u: 0.00E+00 ir: 3.09E-07 iu: 0.00E+00 rsn:   0
  1 2r: 2.29E-05 2x: 3.19E+07 2u: 3.57E+05 ir: 1.65E-06 iu: 2.23E+03 rsn:   0
  2 2r: 2.37E-07 2x: 3.19E+07 2u: 7.09E+03 ir: 6.14E-08 iu: 2.05E+02 rsn:   0
  3 2r: 5.57E-12 2x: 3.19E+07 2u: 3.53E+01 ir: 6.23E-13 iu: 2.17E+00 rsn:   0
  4 2r: 1.15E-14 2x: 3.19E+07 2u: 2.43E-02 ir: 1.90E-16 iu: 2.46E-04 rsn: rtol

 Step      8 Time=  2.73973E-02 Dt=  1.28995E-02 [y] conv_reason: 3
  newton =   4 [      30] linear =   549 [      2308] cuts =  0 [   0]
  --> SNES Linear/Non-Linear Iterations = 549 / 4
  --> SNES Residual: 0.115432E-13 0.256515E-18 0.189779E-15
  --> max change: dpmx=   2.1870E+03

 --> appending to hdf5 output file: 2D_T_refinedmesh.h5
      0.03 Seconds to write HDF5 file.

== RICHARDS FLOW ===============================================================
  0 2r: 1.20E-05 2x: 0.00E+00 2u: 0.00E+00 ir: 2.55E-07 iu: 0.00E+00 rsn:   0
  1 2r: 1.75E-05 2x: 3.16E+07 2u: 3.14E+05 ir: 1.36E-06 iu: 2.01E+03 rsn:   0
  2 2r: 1.26E-07 2x: 3.16E+07 2u: 4.48E+03 ir: 3.97E-08 iu: 6.59E+01 rsn:   0
  3 2r: 1.63E-12 2x: 3.16E+07 2u: 1.19E+01 ir: 1.43E-13 iu: 2.19E-01 rsn:   0
  4 2r: 1.14E-14 2x: 3.16E+07 2u: 3.56E-02 ir: 1.80E-16 iu: 2.97E-04 rsn: rtol

 Step      9 Time=  4.20091E-02 Dt=  1.46119E-02 [y] conv_reason: 3
  newton =   4 [      34] linear =   584 [      2892] cuts =  0 [   0]
  --> SNES Linear/Non-Linear Iterations = 584 / 4
  --> SNES Residual: 0.113726E-13 0.252725E-18 0.179513E-15
  --> max change: dpmx=   1.9833E+03

== RICHARDS FLOW ===============================================================
  0 2r: 9.42E-06 2x: 0.00E+00 2u: 0.00E+00 ir: 2.04E-07 iu: 0.00E+00 rsn:   0
  1 2r: 1.11E-05 2x: 3.14E+07 2u: 2.22E+05 ir: 9.62E-07 iu: 1.44E+03 rsn:   0
  2 2r: 4.03E-08 2x: 3.14E+07 2u: 2.23E+03 ir: 1.74E-08 iu: 1.66E+01 rsn:   0
  3 2r: 3.22E-13 2x: 3.14E+07 2u: 5.45E+00 ir: 4.10E-14 iu: 5.66E-02 rsn:   0
  4 2r: 1.14E-14 2x: 3.14E+07 2u: 3.20E-03 ir: 1.87E-16 iu: 2.57E-05 rsn: rtol

 Step     10 Time=  5.47945E-02 Dt=  1.27854E-02 [y] conv_reason: 3
  newton =   4 [      38] linear =   598 [      3490] cuts =  0 [   0]
  --> SNES Linear/Non-Linear Iterations = 598 / 4
  --> SNES Residual: 0.114222E-13 0.253827E-18 0.187379E-15
  --> max change: dpmx=   1.4281E+03

 --> appending to hdf5 output file: 2D_T_refinedmesh.h5
      0.14 Seconds to write HDF5 file.

== RICHARDS FLOW ===============================================================
  0 2r: 7.69E-06 2x: 0.00E+00 2u: 0.00E+00 ir: 1.69E-07 iu: 0.00E+00 rsn:   0
  1 2r: 1.29E-05 2x: 3.12E+07 2u: 3.27E+05 ir: 1.04E-06 iu: 2.16E+03 rsn:   0
  2 2r: 6.51E-08 2x: 3.12E+07 2u: 2.96E+03 ir: 2.02E-08 iu: 2.10E+01 rsn:   0
  3 2r: 4.89E-13 2x: 3.12E+07 2u: 1.09E+01 ir: 4.69E-14 iu: 1.10E-01 rsn:   0
  4 2r: 1.13E-14 2x: 3.12E+07 2u: 3.56E-03 ir: 1.84E-16 iu: 2.59E-05 rsn: rtol

 Step     11 Time=  8.21918E-02 Dt=  2.73973E-02 [y] conv_reason: 3
  newton =   4 [      42] linear =   664 [      4154] cuts =  0 [   0]
  --> SNES Linear/Non-Linear Iterations = 664 / 4
  --> SNES Residual: 0.112965E-13 0.251033E-18 0.183756E-15
  --> max change: dpmx=   2.1376E+03

 --> appending to hdf5 output file: 2D_T_refinedmesh.h5
      0.04 Seconds to write HDF5 file.

== RICHARDS FLOW ===============================================================
  0 2r: 5.31E-06 2x: 0.00E+00 2u: 0.00E+00 ir: 1.18E-07 iu: 0.00E+00 rsn:   0
  1 2r: 1.99E-07 2x: 3.12E+07 2u: 1.29E+04 ir: 7.73E-08 iu: 8.75E+01 rsn:   0
  2 2r: 1.07E-11 2x: 3.12E+07 2u: 2.73E+01 ir: 4.65E-12 iu: 3.00E-01 rsn:   0
  3 2r: 1.11E-14 2x: 3.12E+07 2u: 1.39E-02 ir: 1.89E-16 iu: 1.43E-04 rsn: rtol

 Step     12 Time=  8.33333E-02 Dt=  1.14155E-03 [y] conv_reason: 3
  newton =   3 [      45] linear =   231 [      4385] cuts =  0 [   0]
  --> SNES Linear/Non-Linear Iterations = 231 / 3
  --> SNES Residual: 0.111377E-13 0.247504E-18 0.188868E-15
  --> max change: dpmx=   8.7703E+01

== RICHARDS FLOW ===============================================================
  0 2r: 2.25E-05 2x: 0.00E+00 2u: 0.00E+00 ir: 1.28E-06 iu: 0.00E+00 rsn:   0
  1 2r: 8.63E-06 2x: 3.11E+07 2u: 1.22E+05 ir: 1.17E-06 iu: 6.73E+03 rsn:   0
  2 2r: 8.17E-07 2x: 3.11E+07 2u: 1.49E+04 ir: 1.58E-07 iu: 1.53E+03 rsn:   0
  3 2r: 1.15E-08 2x: 3.11E+07 2u: 1.03E+03 ir: 2.84E-09 iu: 1.74E+02 rsn:   0
  4 2r: 2.77E-12 2x: 3.11E+07 2u: 2.51E+01 ir: 6.46E-13 iu: 2.08E+00 rsn:   0
  5 2r: 1.12E-14 2x: 3.11E+07 2u: 1.11E-01 ir: 1.90E-16 iu: 9.04E-04 rsn: rtol

 Step     13 Time=  1.09589E-01 Dt=  2.62557E-02 [y] conv_reason: 3
  newton =   5 [      50] linear =   607 [      4992] cuts =  0 [   0]
  --> SNES Linear/Non-Linear Iterations = 607 / 5
  --> SNES Residual: 0.112493E-13 0.249986E-18 0.189867E-15
  --> max change: dpmx=   5.0246E+03

 --> appending to hdf5 output file: 2D_T_refinedmesh.h5
      0.03 Seconds to write HDF5 file.

== RICHARDS FLOW ===============================================================
  0 2r: 1.59E-06 2x: 0.00E+00 2u: 0.00E+00 ir: 4.59E-08 iu: 0.00E+00 rsn:   0
  1 2r: 8.29E-07 2x: 3.11E+07 2u: 4.07E+04 ir: 1.63E-07 iu: 8.94E+02 rsn:   0
  2 2r: 2.95E-10 2x: 3.11E+07 2u: 6.46E+02 ir: 4.52E-11 iu: 4.53E+01 rsn:   0
  3 2r: 2.96E-13 2x: 3.11E+07 2u: 7.83E+00 ir: 4.35E-15 iu: 1.27E-01 rsn:   0
  4 2r: 1.11E-14 2x: 3.11E+07 2u: 1.31E-02 ir: 1.81E-16 iu: 1.11E-04 rsn: rtol

 Step     14 Time=  1.36986E-01 Dt=  2.73973E-02 [y] conv_reason: 3
  newton =   4 [      54] linear =   685 [      5677] cuts =  0 [   0]
  --> SNES Linear/Non-Linear Iterations = 685 / 4
  --> SNES Residual: 0.111171E-13 0.247047E-18 0.181233E-15
  --> max change: dpmx=   8.4893E+02

 --> appending to hdf5 output file: 2D_T_refinedmesh.h5
      0.02 Seconds to write HDF5 file.

== RICHARDS FLOW ===============================================================
  0 2r: 6.37E-07 2x: 0.00E+00 2u: 0.00E+00 ir: 1.58E-08 iu: 0.00E+00 rsn:   0
  1 2r: 4.24E-07 2x: 3.10E+07 2u: 2.41E+04 ir: 1.10E-07 iu: 2.16E+02 rsn:   0
  2 2r: 2.73E-11 2x: 3.10E+07 2u: 5.19E+01 ir: 7.76E-12 iu: 2.92E+00 rsn:   0
  3 2r: 1.12E-14 2x: 3.10E+07 2u: 1.10E-01 ir: 1.90E-16 iu: 1.01E-03 rsn: stol

 Step     15 Time=  1.64384E-01 Dt=  2.73973E-02 [y] conv_reason: 4
  newton =   3 [      57] linear =   540 [      6217] cuts =  0 [   0]
  --> SNES Linear/Non-Linear Iterations = 540 / 3
  --> SNES Residual: 0.111632E-13 0.248070E-18 0.189702E-15
  --> max change: dpmx=   2.1358E+02

 --> appending to hdf5 output file: 2D_T_refinedmesh.h5
      0.02 Seconds to write HDF5 file.

== RICHARDS FLOW ===============================================================
  0 2r: 3.94E-07 2x: 0.00E+00 2u: 0.00E+00 ir: 9.56E-09 iu: 0.00E+00 rsn:   0
  1 2r: 9.55E-09 2x: 3.10E+07 2u: 1.91E+03 ir: 7.80E-09 iu: 1.43E+01 rsn:   0
  2 2r: 5.67E-14 2x: 3.10E+07 2u: 1.89E+00 ir: 2.47E-14 iu: 1.60E-02 rsn:   0
  3 2r: 1.13E-14 2x: 3.10E+07 2u: 1.23E-04 ir: 1.84E-16 iu: 1.54E-06 rsn: stol

 Step     16 Time=  1.66667E-01 Dt=  2.28311E-03 [y] conv_reason: 4
  newton =   3 [      60] linear =   304 [      6521] cuts =  0 [   0]
  --> SNES Linear/Non-Linear Iterations = 304 / 3
  --> SNES Residual: 0.113068E-13 0.251263E-18 0.183732E-15
  --> max change: dpmx=   1.4339E+01

== RICHARDS FLOW ===============================================================
  0 2r: 1.11E-05 2x: 0.00E+00 2u: 0.00E+00 ir: 6.42E-07 iu: 0.00E+00 rsn:   0
  1 2r: 1.74E-06 2x: 3.11E+07 2u: 6.79E+04 ir: 2.69E-07 iu: 1.76E+03 rsn:   0
  2 2r: 1.58E-08 2x: 3.11E+07 2u: 2.78E+03 ir: 4.93E-09 iu: 1.70E+02 rsn:   0
  3 2r: 5.90E-12 2x: 3.11E+07 2u: 4.67E+01 ir: 3.80E-13 iu: 1.95E+00 rsn:   0
  4 2r: 1.13E-14 2x: 3.11E+07 2u: 2.12E-01 ir: 1.83E-16 iu: 1.94E-03 rsn: rtol

 Step     17 Time=  1.91781E-01 Dt=  2.51142E-02 [y] conv_reason: 3
  newton =   4 [      64] linear =   556 [      7077] cuts =  0 [   0]
  --> SNES Linear/Non-Linear Iterations = 556 / 4
  --> SNES Residual: 0.112667E-13 0.250371E-18 0.182822E-15
  --> max change: dpmx=   1.5889E+03

 --> appending to hdf5 output file: 2D_T_refinedmesh.h5
      0.12 Seconds to write HDF5 file.

== RICHARDS FLOW ===============================================================
  0 2r: 1.16E-06 2x: 0.00E+00 2u: 0.00E+00 ir: 1.92E-08 iu: 0.00E+00 rsn:   0
  1 2r: 1.23E-06 2x: 3.11E+07 2u: 5.16E+04 ir: 3.04E-07 iu: 3.24E+02 rsn:   0
  2 2r: 3.62E-11 2x: 3.11E+07 2u: 2.23E+02 ir: 1.14E-11 iu: 6.22E+00 rsn:   0
  3 2r: 1.57E-14 2x: 3.11E+07 2u: 6.98E-01 ir: 2.97E-16 iu: 6.65E-03 rsn:   0
  4 2r: 1.12E-14 2x: 3.11E+07 2u: 9.59E-04 ir: 1.83E-16 iu: 6.65E-06 rsn: rtol

 Step     18 Time=  2.19178E-01 Dt=  2.73973E-02 [y] conv_reason: 3
  newton =   4 [      68] linear =   663 [      7740] cuts =  0 [   0]
  --> SNES Linear/Non-Linear Iterations = 663 / 4
  --> SNES Residual: 0.111607E-13 0.248015E-18 0.182529E-15
  --> max change: dpmx=   3.2442E+02

 --> appending to hdf5 output file: 2D_T_refinedmesh.h5
      0.03 Seconds to write HDF5 file.

== RICHARDS FLOW ===============================================================
  0 2r: 8.53E-07 2x: 0.00E+00 2u: 0.00E+00 ir: 1.79E-08 iu: 0.00E+00 rsn:   0
  1 2r: 8.03E-07 2x: 3.12E+07 2u: 3.69E+04 ir: 2.34E-07 iu: 2.44E+02 rsn:   0
  2 2r: 2.33E-10 2x: 3.12E+07 2u: 5.08E+01 ir: 1.88E-10 iu: 6.71E-01 rsn:   0
  3 2r: 1.13E-14 2x: 3.12E+07 2u: 1.23E-01 ir: 1.85E-16 iu: 1.11E-03 rsn: stol

 Step     19 Time=  2.46575E-01 Dt=  2.73973E-02 [y] conv_reason: 4
  newton =   3 [      71] linear =   537 [      8277] cuts =  0 [   0]
  --> SNES Linear/Non-Linear Iterations = 537 / 3
  --> SNES Residual: 0.112501E-13 0.250002E-18 0.184717E-15
  --> max change: dpmx=   2.4388E+02

 --> appending to hdf5 output file: 2D_T_refinedmesh.h5
      0.10 Seconds to write HDF5 file.

== RICHARDS FLOW ===============================================================
  0 2r: 6.09E-07 2x: 0.00E+00 2u: 0.00E+00 ir: 1.35E-08 iu: 0.00E+00 rsn:   0
  1 2r: 1.06E-08 2x: 3.12E+07 2u: 4.41E+03 ir: 8.17E-09 iu: 2.92E+01 rsn:   0
  2 2r: 6.03E-14 2x: 3.12E+07 2u: 3.46E+00 ir: 7.66E-15 iu: 3.37E-02 rsn:   0
  3 2r: 1.13E-14 2x: 3.12E+07 2u: 4.27E-04 ir: 1.86E-16 iu: 4.13E-06 rsn: stol

 Step     20 Time=  2.50000E-01 Dt=  3.42466E-03 [y] conv_reason: 4
  newton =   3 [      74] linear =   338 [      8615] cuts =  0 [   0]
  --> SNES Linear/Non-Linear Iterations = 338 / 3
  --> SNES Residual: 0.112528E-13 0.250062E-18 0.186325E-15
  --> max change: dpmx=   2.9250E+01

== RICHARDS FLOW ===============================================================
  0 2r: 4.44E-05 2x: 0.00E+00 2u: 0.00E+00 ir: 2.56E-06 iu: 0.00E+00 rsn:   0
  1 2r: 1.51E-05 2x: 3.10E+07 2u: 2.83E+05 ir: 8.97E-07 iu: 5.38E+03 rsn:   0
  2 2r: 1.91E-06 2x: 3.10E+07 2u: 4.51E+04 ir: 2.00E-07 iu: 2.84E+03 rsn:   0
  3 2r: 6.80E-08 2x: 3.10E+07 2u: 5.03E+03 ir: 1.06E-08 iu: 5.59E+02 rsn:   0
  4 2r: 1.08E-10 2x: 3.10E+07 2u: 1.10E+02 ir: 1.99E-11 iu: 1.88E+01 rsn:   0
  5 2r: 3.76E-14 2x: 3.10E+07 2u: 1.80E+00 ir: 6.75E-16 iu: 2.30E-02 rsn: rtol

 Step     21 Time=  2.73973E-01 Dt=  2.39726E-02 [y] conv_reason: 3
  newton =   5 [      79] linear =   533 [      9148] cuts =  0 [   0]
  --> SNES Linear/Non-Linear Iterations = 533 / 5
  --> SNES Residual: 0.375647E-13 0.834772E-18 0.675484E-15
  --> max change: dpmx=   8.7993E+03

 --> appending to hdf5 output file: 2D_T_refinedmesh.h5
      0.03 Seconds to write HDF5 file.

== RICHARDS FLOW ===============================================================
  0 2r: 5.34E-06 2x: 0.00E+00 2u: 0.00E+00 ir: 9.24E-08 iu: 0.00E+00 rsn:   0
  1 2r: 5.88E-06 2x: 3.07E+07 2u: 2.40E+05 ir: 5.95E-07 iu: 2.90E+03 rsn:   0
  2 2r: 2.28E-08 2x: 3.07E+07 2u: 8.64E+03 ir: 8.86E-09 iu: 5.14E+02 rsn:   0
  3 2r: 3.76E-11 2x: 3.07E+07 2u: 1.76E+02 ir: 6.75E-13 iu: 1.29E+01 rsn:   0
  4 2r: 1.44E-14 2x: 3.07E+07 2u: 2.62E+00 ir: 2.48E-16 iu: 2.09E-02 rsn: rtol

 Step     22 Time=  3.01370E-01 Dt=  2.73973E-02 [y] conv_reason: 3
  newton =   4 [      83] linear =   567 [      9715] cuts =  0 [   0]
  --> SNES Linear/Non-Linear Iterations = 567 / 4
  --> SNES Residual: 0.143760E-13 0.319467E-18 0.247504E-15
  --> max change: dpmx=   3.4217E+03

 --> appending to hdf5 output file: 2D_T_refinedmesh.h5
      0.06 Seconds to write HDF5 file.

== RICHARDS FLOW ===============================================================
  0 2r: 3.88E-06 2x: 0.00E+00 2u: 0.00E+00 ir: 7.97E-08 iu: 0.00E+00 rsn:   0
  1 2r: 3.45E-06 2x: 3.06E+07 2u: 1.72E+05 ir: 4.28E-07 iu: 1.35E+03 rsn:   0
  2 2r: 6.17E-09 2x: 3.06E+07 2u: 1.99E+03 ir: 3.24E-09 iu: 9.08E+01 rsn:   0
  3 2r: 1.47E-12 2x: 3.06E+07 2u: 2.75E+01 ir: 2.12E-14 iu: 3.74E-01 rsn:   0
  4 2r: 1.10E-14 2x: 3.06E+07 2u: 5.33E-02 ir: 1.87E-16 iu: 5.12E-04 rsn: rtol

 Step     23 Time=  3.28767E-01 Dt=  2.73973E-02 [y] conv_reason: 3
  newton =   4 [      87] linear =   625 [     10340] cuts =  0 [   0]
  --> SNES Linear/Non-Linear Iterations = 625 / 4
  --> SNES Residual: 0.110381E-13 0.245291E-18 0.187107E-15
  --> max change: dpmx=   1.4393E+03

 --> appending to hdf5 output file: 2D_T_refinedmesh.h5
      0.10 Seconds to write HDF5 file.

== RICHARDS FLOW ===============================================================
  0 2r: 2.81E-06 2x: 0.00E+00 2u: 0.00E+00 ir: 6.05E-08 iu: 0.00E+00 rsn:   0
  1 2r: 3.19E-07 2x: 3.06E+07 2u: 2.68E+04 ir: 8.19E-08 iu: 1.98E+02 rsn:   0
  2 2r: 4.55E-11 2x: 3.06E+07 2u: 7.74E+01 ir: 1.13E-11 iu: 1.18E+00 rsn:   0
  3 2r: 1.10E-14 2x: 3.06E+07 2u: 3.54E-02 ir: 1.85E-16 iu: 3.97E-04 rsn: rtol

 Step     24 Time=  3.33333E-01 Dt=  4.56621E-03 [y] conv_reason: 3
  newton =   3 [      90] linear =   308 [     10648] cuts =  0 [   0]
  --> SNES Linear/Non-Linear Iterations = 308 / 3
  --> SNES Residual: 0.110151E-13 0.244780E-18 0.184511E-15
  --> max change: dpmx=   1.9967E+02

== RICHARDS FLOW ===============================================================
  0 2r: 1.13E-05 2x: 0.00E+00 2u: 0.00E+00 ir: 6.40E-07 iu: 0.00E+00 rsn:   0
  1 2r: 3.39E-06 2x: 3.05E+07 2u: 8.59E+04 ir: 4.28E-07 iu: 5.54E+03 rsn:   0
  2 2r: 2.10E-07 2x: 3.05E+07 2u: 8.73E+03 ir: 3.77E-08 iu: 1.03E+03 rsn:   0
  3 2r: 1.02E-09 2x: 3.05E+07 2u: 4.08E+02 ir: 2.29E-10 iu: 6.40E+01 rsn:   0
  4 2r: 2.21E-13 2x: 3.05E+07 2u: 3.74E+00 ir: 5.84E-15 iu: 2.63E-01 rsn:   0
  5 2r: 1.11E-14 2x: 3.05E+07 2u: 5.38E-03 ir: 1.82E-16 iu: 5.03E-05 rsn: rtol

 Step     25 Time=  3.56164E-01 Dt=  2.28311E-02 [y] conv_reason: 3
  newton =   5 [      95] linear =   622 [     11270] cuts =  0 [   0]
  --> SNES Linear/Non-Linear Iterations = 622 / 5
  --> SNES Residual: 0.110852E-13 0.246337E-18 0.181907E-15
  --> max change: dpmx=   4.4533E+03

 --> appending to hdf5 output file: 2D_T_refinedmesh.h5
      0.04 Seconds to write HDF5 file.

== RICHARDS FLOW ===============================================================
  0 2r: 1.14E-06 2x: 0.00E+00 2u: 0.00E+00 ir: 3.53E-08 iu: 0.00E+00 rsn:   0
  1 2r: 3.42E-07 2x: 3.05E+07 2u: 3.05E+04 ir: 8.28E-08 iu: 1.04E+03 rsn:   0
  2 2r: 1.97E-10 2x: 3.05E+07 2u: 6.03E+02 ir: 1.30E-11 iu: 5.06E+01 rsn:   0
  3 2r: 1.58E-13 2x: 3.05E+07 2u: 1.45E+01 ir: 2.85E-15 iu: 1.33E-01 rsn:   0
  4 2r: 1.11E-14 2x: 3.05E+07 2u: 4.11E-03 ir: 1.87E-16 iu: 3.66E-05 rsn: rtol

 Step     26 Time=  3.83562E-01 Dt=  2.73973E-02 [y] conv_reason: 3
  newton =   4 [      99] linear =   583 [     11853] cuts =  0 [   0]
  --> SNES Linear/Non-Linear Iterations = 583 / 4
  --> SNES Residual: 0.111080E-13 0.246845E-18 0.187453E-15
  --> max change: dpmx=   9.8901E+02

 --> appending to hdf5 output file: 2D_T_refinedmesh.h5
      0.18 Seconds to write HDF5 file.

== RICHARDS FLOW ===============================================================
  0 2r: 4.45E-07 2x: 0.00E+00 2u: 0.00E+00 ir: 1.06E-08 iu: 0.00E+00 rsn:   0
  1 2r: 1.58E-07 2x: 3.05E+07 2u: 1.63E+04 ir: 4.69E-08 iu: 3.04E+02 rsn:   0
  2 2r: 1.78E-11 2x: 3.05E+07 2u: 9.00E+01 ir: 4.63E-12 iu: 4.70E+00 rsn:   0
  3 2r: 1.12E-14 2x: 3.05E+07 2u: 3.41E-01 ir: 1.95E-16 iu: 2.88E-03 rsn:   0
  4 2r: 1.11E-14 2x: 3.05E+07 2u: 1.39E-04 ir: 1.86E-16 iu: 1.14E-06 rsn: stol

 Step     27 Time=  4.10959E-01 Dt=  2.73973E-02 [y] conv_reason: 4
  newton =   4 [     103] linear =   731 [     12584] cuts =  0 [   0]
  --> SNES Linear/Non-Linear Iterations = 731 / 4
  --> SNES Residual: 0.110866E-13 0.246369E-18 0.185878E-15
  --> max change: dpmx=   2.9963E+02

 --> appending to hdf5 output file: 2D_T_refinedmesh.h5
      0.11 Seconds to write HDF5 file.

== RICHARDS FLOW ===============================================================
  0 2r: 2.64E-07 2x: 0.00E+00 2u: 0.00E+00 ir: 6.29E-09 iu: 0.00E+00 rsn:   0
  1 2r: 1.52E-08 2x: 3.05E+07 2u: 3.03E+03 ir: 8.30E-09 iu: 4.35E+01 rsn:   0
  2 2r: 3.11E-13 2x: 3.05E+07 2u: 5.88E+00 ir: 4.19E-14 iu: 7.01E-02 rsn:   0
  3 2r: 1.10E-14 2x: 3.05E+07 2u: 5.86E-03 ir: 1.88E-16 iu: 4.88E-05 rsn: stol

 Step     28 Time=  4.16667E-01 Dt=  5.70776E-03 [y] conv_reason: 4
  newton =   3 [     106] linear =   389 [     12973] cuts =  0 [   0]
  --> SNES Linear/Non-Linear Iterations = 389 / 3
  --> SNES Residual: 0.110053E-13 0.244562E-18 0.188053E-15
  --> max change: dpmx=   4.3387E+01

== RICHARDS FLOW ===============================================================
  0 2r: 5.56E-06 2x: 0.00E+00 2u: 0.00E+00 ir: 3.21E-07 iu: 0.00E+00 rsn:   0
  1 2r: 6.54E-07 2x: 3.05E+07 2u: 5.03E+04 ir: 1.14E-07 iu: 1.65E+03 rsn:   0
  2 2r: 5.02E-09 2x: 3.05E+07 2u: 2.11E+03 ir: 5.76E-10 iu: 1.55E+02 rsn:   0
  3 2r: 3.01E-12 2x: 3.05E+07 2u: 3.27E+01 ir: 7.08E-14 iu: 1.29E+00 rsn:   0
  4 2r: 1.11E-14 2x: 3.05E+07 2u: 1.64E-01 ir: 1.90E-16 iu: 1.39E-03 rsn: rtol

 Step     29 Time=  4.38356E-01 Dt=  2.16895E-02 [y] conv_reason: 3
  newton =   4 [     110] linear =   516 [     13489] cuts =  0 [   0]
  --> SNES Linear/Non-Linear Iterations = 516 / 4
  --> SNES Residual: 0.110521E-13 0.245602E-18 0.190481E-15
  --> max change: dpmx=   1.8016E+03

 --> appending to hdf5 output file: 2D_T_refinedmesh.h5
      0.04 Seconds to write HDF5 file.

== RICHARDS FLOW ===============================================================
  0 2r: 8.95E-07 2x: 0.00E+00 2u: 0.00E+00 ir: 1.68E-08 iu: 0.00E+00 rsn:   0
  1 2r: 4.33E-07 2x: 3.04E+07 2u: 4.20E+04 ir: 8.97E-08 iu: 5.40E+02 rsn:   0
  2 2r: 1.07E-10 2x: 3.04E+07 2u: 3.54E+02 ir: 1.58E-11 iu: 1.49E+01 rsn:   0
  3 2r: 4.69E-14 2x: 3.04E+07 2u: 1.36E+00 ir: 6.78E-16 iu: 1.36E-02 rsn:   0
  4 2r: 1.11E-14 2x: 3.04E+07 2u: 2.33E-03 ir: 1.84E-16 iu: 2.14E-05 rsn: stol

 Step     30 Time=  4.65753E-01 Dt=  2.73973E-02 [y] conv_reason: 4
  newton =   4 [     114] linear =   606 [     14095] cuts =  0 [   0]
  --> SNES Linear/Non-Linear Iterations = 606 / 4
  --> SNES Residual: 0.110875E-13 0.246389E-18 0.184191E-15
  --> max change: dpmx=   5.5476E+02

 --> appending to hdf5 output file: 2D_T_refinedmesh.h5
      0.02 Seconds to write HDF5 file.

== RICHARDS FLOW ===============================================================
  0 2r: 6.74E-07 2x: 0.00E+00 2u: 0.00E+00 ir: 1.39E-08 iu: 0.00E+00 rsn:   0
  1 2r: 3.28E-07 2x: 3.04E+07 2u: 3.06E+04 ir: 7.42E-08 iu: 2.07E+02 rsn:   0
  2 2r: 2.11E-11 2x: 3.04E+07 2u: 6.97E+01 ir: 4.19E-12 iu: 1.82E+00 rsn:   0
  3 2r: 1.11E-14 2x: 3.04E+07 2u: 2.70E-01 ir: 1.89E-16 iu: 2.84E-03 rsn: stol

 Step     31 Time=  4.93151E-01 Dt=  2.73973E-02 [y] conv_reason: 4
  newton =   3 [     117] linear =   472 [     14567] cuts =  0 [   0]
  --> SNES Linear/Non-Linear Iterations = 472 / 3
  --> SNES Residual: 0.110581E-13 0.245736E-18 0.189347E-15
  --> max change: dpmx=   2.0820E+02

 --> appending to hdf5 output file: 2D_T_refinedmesh.h5
      0.02 Seconds to write HDF5 file.

== RICHARDS FLOW ===============================================================
  0 2r: 5.03E-07 2x: 0.00E+00 2u: 0.00E+00 ir: 1.09E-08 iu: 0.00E+00 rsn:   0
  1 2r: 3.56E-08 2x: 3.04E+07 2u: 6.99E+03 ir: 1.49E-08 iu: 4.70E+01 rsn:   0
  2 2r: 9.78E-13 2x: 3.04E+07 2u: 1.25E+01 ir: 2.70E-13 iu: 9.84E-02 rsn:   0
  3 2r: 1.10E-14 2x: 3.04E+07 2u: 1.28E-02 ir: 1.85E-16 iu: 1.11E-04 rsn: stol

 Step     32 Time=  5.00000E-01 Dt=  6.84932E-03 [y] conv_reason: 4
  newton =   3 [     120] linear =   375 [     14942] cuts =  0 [   0]
  --> SNES Linear/Non-Linear Iterations = 375 / 3
  --> SNES Residual: 0.109573E-13 0.243495E-18 0.184784E-15
  --> max change: dpmx=   4.7021E+01

== RICHARDS FLOW ===============================================================
  0 2r: 5.04E-06 2x: 0.00E+00 2u: 0.00E+00 ir: 2.90E-07 iu: 0.00E+00 rsn:   0
  1 2r: 6.56E-07 2x: 3.04E+07 2u: 5.56E+04 ir: 9.35E-08 iu: 2.00E+03 rsn:   0
  2 2r: 6.69E-09 2x: 3.04E+07 2u: 2.60E+03 ir: 8.35E-10 iu: 2.16E+02 rsn:   0
  3 2r: 6.89E-12 2x: 3.04E+07 2u: 2.19E+01 ir: 1.80E-13 iu: 2.36E+00 rsn:   0
  4 2r: 1.09E-14 2x: 3.04E+07 2u: 1.83E-01 ir: 1.86E-16 iu: 1.98E-03 rsn: rtol

 Step     33 Time=  5.20548E-01 Dt=  2.05479E-02 [y] conv_reason: 3
  newton =   4 [     124] linear =   510 [     15452] cuts =  0 [   0]
  --> SNES Linear/Non-Linear Iterations = 510 / 4
  --> SNES Residual: 0.109388E-13 0.243084E-18 0.186050E-15
  --> max change: dpmx=   2.2145E+03

 --> appending to hdf5 output file: 2D_T_refinedmesh.h5
      0.07 Seconds to write HDF5 file.

== RICHARDS FLOW ===============================================================
  0 2r: 1.01E-06 2x: 0.00E+00 2u: 0.00E+00 ir: 1.93E-08 iu: 0.00E+00 rsn:   0
  1 2r: 4.53E-07 2x: 3.03E+07 2u: 4.86E+04 ir: 1.02E-07 iu: 8.01E+02 rsn:   0
  2 2r: 1.85E-10 2x: 3.03E+07 2u: 5.69E+02 ir: 2.45E-11 iu: 3.05E+01 rsn:   0
  3 2r: 1.02E-13 2x: 3.03E+07 2u: 6.34E+00 ir: 1.66E-15 iu: 6.17E-02 rsn:   0
  4 2r: 1.08E-14 2x: 3.03E+07 2u: 5.09E-03 ir: 1.80E-16 iu: 4.63E-05 rsn: stol

 Step     34 Time=  5.47945E-01 Dt=  2.73973E-02 [y] conv_reason: 4
  newton =   4 [     128] linear =   600 [     16052] cuts =  0 [   0]
  --> SNES Linear/Non-Linear Iterations = 600 / 4
  --> SNES Residual: 0.108351E-13 0.240780E-18 0.179818E-15
  --> max change: dpmx=   8.3155E+02

 --> appending to hdf5 output file: 2D_T_refinedmesh.h5
      0.09 Seconds to write HDF5 file.

== RICHARDS FLOW ===============================================================
  0 2r: 7.64E-07 2x: 0.00E+00 2u: 0.00E+00 ir: 1.57E-08 iu: 0.00E+00 rsn:   0
  1 2r: 3.40E-07 2x: 3.03E+07 2u: 3.52E+04 ir: 8.97E-08 iu: 3.17E+02 rsn:   0
  2 2r: 4.11E-11 2x: 3.03E+07 2u: 1.30E+02 ir: 5.70E-12 iu: 4.51E+00 rsn:   0
  3 2r: 1.10E-14 2x: 3.03E+07 2u: 1.15E+00 ir: 1.88E-16 iu: 1.16E-02 rsn:   0
  4 2r: 1.10E-14 2x: 3.03E+07 2u: 5.95E-06 ir: 1.89E-16 iu: 4.35E-08 rsn: stol

 Step     35 Time=  5.75342E-01 Dt=  2.73973E-02 [y] conv_reason: 4
  newton =   4 [     132] linear =   672 [     16724] cuts =  0 [   0]
  --> SNES Linear/Non-Linear Iterations = 672 / 4
  --> SNES Residual: 0.110096E-13 0.244658E-18 0.188753E-15
  --> max change: dpmx=   3.2104E+02

 --> appending to hdf5 output file: 2D_T_refinedmesh.h5
      0.02 Seconds to write HDF5 file.

== RICHARDS FLOW ===============================================================
  0 2r: 5.72E-07 2x: 0.00E+00 2u: 0.00E+00 ir: 1.23E-08 iu: 0.00E+00 rsn:   0
  1 2r: 6.68E-08 2x: 3.03E+07 2u: 9.27E+03 ir: 2.73E-08 iu: 7.01E+01 rsn:   0
  2 2r: 2.46E-12 2x: 3.03E+07 2u: 1.95E+01 ir: 7.84E-13 iu: 1.52E-01 rsn:   0
  3 2r: 1.10E-14 2x: 3.03E+07 2u: 3.37E-02 ir: 1.87E-16 iu: 2.87E-04 rsn: stol

 Step     36 Time=  5.83333E-01 Dt=  7.99087E-03 [y] conv_reason: 4
  newton =   3 [     135] linear =   378 [     17102] cuts =  0 [   0]
  --> SNES Linear/Non-Linear Iterations = 378 / 3
  --> SNES Residual: 0.109701E-13 0.243780E-18 0.187333E-15
  --> max change: dpmx=   7.0216E+01

== RICHARDS FLOW ===============================================================
  0 2r: 5.20E-07 2x: 0.00E+00 2u: 0.00E+00 ir: 1.13E-08 iu: 0.00E+00 rsn:   0
  1 2r: 1.58E-07 2x: 3.03E+07 2u: 1.79E+04 ir: 4.37E-08 iu: 1.32E+02 rsn:   0
  2 2r: 5.51E-12 2x: 3.03E+07 2u: 3.41E+01 ir: 1.64E-12 iu: 4.02E-01 rsn:   0
  3 2r: 1.10E-14 2x: 3.03E+07 2u: 3.59E-03 ir: 1.86E-16 iu: 3.89E-05 rsn: stol

 Step     37 Time=  6.02740E-01 Dt=  1.94064E-02 [y] conv_reason: 4
  newton =   3 [     138] linear =   437 [     17539] cuts =  0 [   0]
  --> SNES Linear/Non-Linear Iterations = 437 / 3
  --> SNES Residual: 0.109827E-13 0.244060E-18 0.186417E-15
  --> max change: dpmx=   1.3271E+02

 --> appending to hdf5 output file: 2D_T_refinedmesh.h5
      0.02 Seconds to write HDF5 file.

== RICHARDS FLOW ===============================================================
  0 2r: 4.15E-07 2x: 0.00E+00 2u: 0.00E+00 ir: 9.11E-09 iu: 0.00E+00 rsn:   0
  1 2r: 1.47E-07 2x: 3.03E+07 2u: 1.85E+04 ir: 4.67E-08 iu: 1.38E+02 rsn:   0
  2 2r: 4.59E-12 2x: 3.03E+07 2u: 2.89E+01 ir: 1.34E-12 iu: 3.95E-01 rsn:   0
  3 2r: 1.09E-14 2x: 3.03E+07 2u: 3.03E-02 ir: 1.88E-16 iu: 3.35E-04 rsn: stol

 Step     38 Time=  6.30137E-01 Dt=  2.73973E-02 [y] conv_reason: 4
  newton =   3 [     141] linear =   471 [     18010] cuts =  0 [   0]
  --> SNES Linear/Non-Linear Iterations = 471 / 3
  --> SNES Residual: 0.109030E-13 0.242289E-18 0.188295E-15
  --> max change: dpmx=   1.3806E+02

 --> appending to hdf5 output file: 2D_T_refinedmesh.h5
      0.14 Seconds to write HDF5 file.

== RICHARDS FLOW ===============================================================
  0 2r: 3.05E-07 2x: 0.00E+00 2u: 0.00E+00 ir: 6.74E-09 iu: 0.00E+00 rsn:   0
  1 2r: 1.24E-07 2x: 3.03E+07 2u: 1.36E+04 ir: 3.47E-08 iu: 1.02E+02 rsn:   0
  2 2r: 2.79E-12 2x: 3.03E+07 2u: 1.22E+01 ir: 7.64E-13 iu: 2.33E-01 rsn:   0
  3 2r: 1.10E-14 2x: 3.03E+07 2u: 5.38E-02 ir: 1.85E-16 iu: 4.47E-04 rsn: stol

 Step     39 Time=  6.57534E-01 Dt=  2.73973E-02 [y] conv_reason: 4
  newton =   3 [     144] linear =   433 [     18443] cuts =  0 [   0]
  --> SNES Linear/Non-Linear Iterations = 433 / 3
  --> SNES Residual: 0.109887E-13 0.244194E-18 0.185378E-15
  --> max change: dpmx=   1.0207E+02

 --> appending to hdf5 output file: 2D_T_refinedmesh.h5
      0.02 Seconds to write HDF5 file.

== RICHARDS FLOW ===============================================================
  0 2r: 2.24E-07 2x: 0.00E+00 2u: 0.00E+00 ir: 4.96E-09 iu: 0.00E+00 rsn:   0
  1 2r: 1.23E-08 2x: 3.02E+07 2u: 4.05E+03 ir: 6.02E-09 iu: 3.05E+01 rsn:   0
  2 2r: 2.64E-13 2x: 3.02E+07 2u: 4.73E+00 ir: 3.89E-14 iu: 3.88E-02 rsn:   0
  3 2r: 1.09E-14 2x: 3.02E+07 2u: 1.20E-03 ir: 1.85E-16 iu: 1.54E-05 rsn: stol

 Step     40 Time=  6.66667E-01 Dt=  9.13242E-03 [y] conv_reason: 4
  newton =   3 [     147] linear =   374 [     18817] cuts =  0 [   0]
  --> SNES Linear/Non-Linear Iterations = 374 / 3
  --> SNES Residual: 0.109497E-13 0.243326E-18 0.185189E-15
  --> max change: dpmx=   3.0476E+01

== RICHARDS FLOW ===============================================================
  0 2r: 2.00E-07 2x: 0.00E+00 2u: 0.00E+00 ir: 4.43E-09 iu: 0.00E+00 rsn:   0
  1 2r: 3.90E-08 2x: 3.02E+07 2u: 6.53E+03 ir: 1.64E-08 iu: 4.92E+01 rsn:   0
  2 2r: 4.86E-13 2x: 3.02E+07 2u: 7.66E+00 ir: 2.20E-13 iu: 7.41E-02 rsn:   0
  3 2r: 1.10E-14 2x: 3.02E+07 2u: 4.83E-03 ir: 1.83E-16 iu: 3.75E-05 rsn: stol

 Step     41 Time=  6.84932E-01 Dt=  1.82648E-02 [y] conv_reason: 4
  newton =   3 [     150] linear =   445 [     19262] cuts =  0 [   0]
  --> SNES Linear/Non-Linear Iterations = 445 / 3
  --> SNES Residual: 0.109666E-13 0.243702E-18 0.183111E-15
  --> max change: dpmx=   4.9235E+01

 --> appending to hdf5 output file: 2D_T_refinedmesh.h5
      0.03 Seconds to write HDF5 file.

== RICHARDS FLOW ===============================================================
  0 2r: 1.61E-07 2x: 0.00E+00 2u: 0.00E+00 ir: 3.58E-09 iu: 0.00E+00 rsn:   0
  1 2r: 3.93E-08 2x: 3.02E+07 2u: 7.20E+03 ir: 2.12E-08 iu: 5.44E+01 rsn:   0
  2 2r: 4.89E-13 2x: 3.02E+07 2u: 8.08E+00 ir: 2.81E-13 iu: 7.71E-02 rsn:   0
  3 2r: 1.09E-14 2x: 3.02E+07 2u: 8.58E-03 ir: 1.83E-16 iu: 6.89E-05 rsn: stol

 Step     42 Time=  7.12329E-01 Dt=  2.73973E-02 [y] conv_reason: 4
  newton =   3 [     153] linear =   474 [     19736] cuts =  0 [   0]
  --> SNES Linear/Non-Linear Iterations = 474 / 3
  --> SNES Residual: 0.108850E-13 0.241888E-18 0.182511E-15
  --> max change: dpmx=   5.4429E+01

 --> appending to hdf5 output file: 2D_T_refinedmesh.h5
      0.02 Seconds to write HDF5 file.

== RICHARDS FLOW ===============================================================
  0 2r: 1.19E-07 2x: 0.00E+00 2u: 0.00E+00 ir: 2.63E-09 iu: 0.00E+00 rsn:   0
  1 2r: 3.17E-08 2x: 3.02E+07 2u: 5.29E+03 ir: 1.47E-08 iu: 4.01E+01 rsn:   0
  2 2r: 3.83E-13 2x: 3.02E+07 2u: 5.24E+00 ir: 1.16E-13 iu: 5.45E-02 rsn:   0
  3 2r: 1.09E-14 2x: 3.02E+07 2u: 9.29E-03 ir: 1.87E-16 iu: 7.53E-05 rsn: stol

 Step     43 Time=  7.39726E-01 Dt=  2.73973E-02 [y] conv_reason: 4
  newton =   3 [     156] linear =   437 [     20173] cuts =  0 [   0]
  --> SNES Linear/Non-Linear Iterations = 437 / 3
  --> SNES Residual: 0.108562E-13 0.241250E-18 0.186649E-15
  --> max change: dpmx=   4.0110E+01

 --> appending to hdf5 output file: 2D_T_refinedmesh.h5
      0.02 Seconds to write HDF5 file.

== RICHARDS FLOW ===============================================================
  0 2r: 8.74E-08 2x: 0.00E+00 2u: 0.00E+00 ir: 1.94E-09 iu: 0.00E+00 rsn:   0
  1 2r: 6.00E-09 2x: 3.02E+07 2u: 1.75E+03 ir: 4.40E-09 iu: 1.33E+01 rsn:   0
  2 2r: 3.12E-14 2x: 3.02E+07 2u: 2.05E+00 ir: 1.19E-14 iu: 1.75E-02 rsn:   0
  3 2r: 1.08E-14 2x: 3.02E+07 2u: 3.71E-04 ir: 1.83E-16 iu: 3.60E-06 rsn: stol

 Step     44 Time=  7.50000E-01 Dt=  1.02740E-02 [y] conv_reason: 4
  newton =   3 [     159] linear =   428 [     20601] cuts =  0 [   0]
  --> SNES Linear/Non-Linear Iterations = 428 / 3
  --> SNES Residual: 0.108067E-13 0.240149E-18 0.183325E-15
  --> max change: dpmx=   1.3269E+01

== RICHARDS FLOW ===============================================================
  0 2r: 7.70E-08 2x: 0.00E+00 2u: 0.00E+00 ir: 1.71E-09 iu: 0.00E+00 rsn:   0
  1 2r: 5.21E-09 2x: 3.02E+07 2u: 2.38E+03 ir: 3.08E-09 iu: 1.81E+01 rsn:   0
  2 2r: 5.53E-14 2x: 3.02E+07 2u: 2.58E+00 ir: 1.20E-14 iu: 2.24E-02 rsn:   0
  3 2r: 1.10E-14 2x: 3.02E+07 2u: 1.74E-03 ir: 1.83E-16 iu: 1.35E-05 rsn: stol

 Step     45 Time=  7.67123E-01 Dt=  1.71233E-02 [y] conv_reason: 4
  newton =   3 [     162] linear =   451 [     21052] cuts =  0 [   0]
  --> SNES Linear/Non-Linear Iterations = 451 / 3
  --> SNES Residual: 0.109595E-13 0.243545E-18 0.182533E-15
  --> max change: dpmx=   1.8066E+01

 --> appending to hdf5 output file: 2D_T_refinedmesh.h5
      0.02 Seconds to write HDF5 file.

== RICHARDS FLOW ===============================================================
  0 2r: 6.29E-08 2x: 0.00E+00 2u: 0.00E+00 ir: 1.39E-09 iu: 0.00E+00 rsn:   0
  1 2r: 1.19E-08 2x: 3.02E+07 2u: 2.80E+03 ir: 5.17E-09 iu: 2.13E+01 rsn:   0
  2 2r: 7.05E-14 2x: 3.02E+07 2u: 1.30E+00 ir: 1.71E-14 iu: 1.66E-02 rsn:   0
  3 2r: 1.08E-14 2x: 3.02E+07 2u: 1.88E-03 ir: 1.84E-16 iu: 1.56E-05 rsn: stol

 Step     46 Time=  7.94521E-01 Dt=  2.73973E-02 [y] conv_reason: 4
  newton =   3 [     165] linear =   537 [     21589] cuts =  0 [   0]
  --> SNES Linear/Non-Linear Iterations = 537 / 3
  --> SNES Residual: 0.108255E-13 0.240567E-18 0.184244E-15
  --> max change: dpmx=   2.1282E+01

 --> appending to hdf5 output file: 2D_T_refinedmesh.h5
      0.04 Seconds to write HDF5 file.

== RICHARDS FLOW ===============================================================
  0 2r: 4.63E-08 2x: 0.00E+00 2u: 0.00E+00 ir: 1.03E-09 iu: 0.00E+00 rsn:   0
  1 2r: 4.43E-09 2x: 3.02E+07 2u: 2.06E+03 ir: 2.60E-09 iu: 1.57E+01 rsn:   0
  2 2r: 2.96E-14 2x: 3.02E+07 2u: 1.79E+00 ir: 4.23E-15 iu: 1.67E-02 rsn:   0
  3 2r: 1.10E-14 2x: 3.02E+07 2u: 1.00E-03 ir: 1.86E-16 iu: 7.62E-06 rsn: stol

 Step     47 Time=  8.21918E-01 Dt=  2.73973E-02 [y] conv_reason: 4
  newton =   3 [     168] linear =   479 [     22068] cuts =  0 [   0]
  --> SNES Linear/Non-Linear Iterations = 479 / 3
  --> SNES Residual: 0.109587E-13 0.243526E-18 0.185762E-15
  --> max change: dpmx=   1.5671E+01

 --> appending to hdf5 output file: 2D_T_refinedmesh.h5
      0.09 Seconds to write HDF5 file.

== RICHARDS FLOW ===============================================================
  0 2r: 3.40E-08 2x: 0.00E+00 2u: 0.00E+00 ir: 7.55E-10 iu: 0.00E+00 rsn:   0
  1 2r: 1.15E-10 2x: 3.02E+07 2u: 7.48E+02 ir: 7.73E-11 iu: 5.68E+00 rsn:   0
  2 2r: 1.17E-14 2x: 3.02E+07 2u: 7.71E-01 ir: 2.15E-16 iu: 6.60E-03 rsn:   0
  3 2r: 1.09E-14 2x: 3.02E+07 2u: 7.61E-05 ir: 1.87E-16 iu: 6.82E-07 rsn: stol

 Step     48 Time=  8.33333E-01 Dt=  1.14155E-02 [y] conv_reason: 4
  newton =   3 [     171] linear =   423 [     22491] cuts =  0 [   0]
  --> SNES Linear/Non-Linear Iterations = 423 / 3
  --> SNES Residual: 0.108686E-13 0.241525E-18 0.186811E-15
  --> max change: dpmx=   5.6822E+00

== RICHARDS FLOW ===============================================================
  0 2r: 2.96E-08 2x: 0.00E+00 2u: 0.00E+00 ir: 6.57E-10 iu: 0.00E+00 rsn:   0
  1 2r: 3.56E-09 2x: 3.02E+07 2u: 8.65E+02 ir: 2.50E-09 iu: 6.58E+00 rsn:   0
  2 2r: 1.45E-14 2x: 3.02E+07 2u: 8.49E-01 ir: 4.24E-15 iu: 8.60E-03 rsn:   0
  3 2r: 1.09E-14 2x: 3.02E+07 2u: 1.93E-04 ir: 1.88E-16 iu: 1.76E-06 rsn: stol

 Step     49 Time=  8.49315E-01 Dt=  1.59817E-02 [y] conv_reason: 4
  newton =   3 [     174] linear =   474 [     22965] cuts =  0 [   0]
  --> SNES Linear/Non-Linear Iterations = 474 / 3
  --> SNES Residual: 0.108842E-13 0.241872E-18 0.188101E-15
  --> max change: dpmx=   6.5790E+00

 --> appending to hdf5 output file: 2D_T_refinedmesh.h5
      0.03 Seconds to write HDF5 file.

== RICHARDS FLOW ===============================================================
  0 2r: 2.45E-08 2x: 0.00E+00 2u: 0.00E+00 ir: 5.43E-10 iu: 0.00E+00 rsn:   0
  1 2r: 5.87E-11 2x: 3.02E+07 2u: 1.09E+03 ir: 4.80E-12 iu: 8.30E+00 rsn:   0
  2 2r: 1.67E-14 2x: 3.02E+07 2u: 9.47E-01 ir: 3.76E-16 iu: 8.29E-03 rsn:   0
  3 2r: 1.09E-14 2x: 3.02E+07 2u: 2.39E-04 ir: 1.86E-16 iu: 2.08E-06 rsn: stol

 Step     50 Time=  8.76712E-01 Dt=  2.73973E-02 [y] conv_reason: 4
  newton =   3 [     177] linear =   488 [     23453] cuts =  0 [   0]
  --> SNES Linear/Non-Linear Iterations = 488 / 3
  --> SNES Residual: 0.109277E-13 0.242839E-18 0.186328E-15
  --> max change: dpmx=   8.3020E+00

 --> appending to hdf5 output file: 2D_T_refinedmesh.h5
      0.03 Seconds to write HDF5 file.

== RICHARDS FLOW ===============================================================
  0 2r: 1.80E-08 2x: 0.00E+00 2u: 0.00E+00 ir: 4.00E-10 iu: 0.00E+00 rsn:   0
  1 2r: 5.17E-11 2x: 3.02E+07 2u: 8.04E+02 ir: 2.91E-12 iu: 6.11E+00 rsn:   0
  2 2r: 1.26E-14 2x: 3.02E+07 2u: 7.42E-01 ir: 2.50E-16 iu: 6.62E-03 rsn:   0
  3 2r: 1.09E-14 2x: 3.02E+07 2u: 1.84E-04 ir: 1.86E-16 iu: 1.84E-06 rsn: stol

 Step     51 Time=  9.04110E-01 Dt=  2.73973E-02 [y] conv_reason: 4
  newton =   3 [     180] linear =   465 [     23918] cuts =  0 [   0]
  --> SNES Linear/Non-Linear Iterations = 465 / 3
  --> SNES Residual: 0.108588E-13 0.241307E-18 0.185793E-15
  --> max change: dpmx=   6.1117E+00

 --> appending to hdf5 output file: 2D_T_refinedmesh.h5
      0.06 Seconds to write HDF5 file.

== RICHARDS FLOW ===============================================================
  0 2r: 1.33E-08 2x: 0.00E+00 2u: 0.00E+00 ir: 2.94E-10 iu: 0.00E+00 rsn:   0
  1 2r: 1.63E-11 2x: 3.02E+07 2u: 3.16E+02 ir: 5.04E-13 iu: 2.41E+00 rsn:   0
  2 2r: 1.11E-14 2x: 3.02E+07 2u: 3.28E-01 ir: 1.93E-16 iu: 2.89E-03 rsn:   0
  3 2r: 1.10E-14 2x: 3.02E+07 2u: 3.25E-05 ir: 1.88E-16 iu: 3.03E-07 rsn: stol

 Step     52 Time=  9.16667E-01 Dt=  1.25571E-02 [y] conv_reason: 4
  newton =   3 [     183] linear =   428 [     24346] cuts =  0 [   0]
  --> SNES Linear/Non-Linear Iterations = 428 / 3
  --> SNES Residual: 0.109768E-13 0.243930E-18 0.187532E-15
  --> max change: dpmx=   2.4061E+00

== RICHARDS FLOW ===============================================================
  0 2r: 4.99E-06 2x: 0.00E+00 2u: 0.00E+00 ir: 2.88E-07 iu: 0.00E+00 rsn:   0
  1 2r: 7.20E-07 2x: 3.02E+07 2u: 4.44E+04 ir: 6.74E-08 iu: 2.44E+03 rsn:   0
  2 2r: 9.98E-09 2x: 3.02E+07 2u: 2.42E+03 ir: 1.34E-09 iu: 2.28E+02 rsn:   0
  3 2r: 7.19E-12 2x: 3.02E+07 2u: 2.10E+01 ir: 3.35E-13 iu: 2.74E+00 rsn:   0
  4 2r: 1.10E-14 2x: 3.02E+07 2u: 3.03E-01 ir: 1.94E-16 iu: 2.68E-03 rsn: rtol

 Step     53 Time=  9.31507E-01 Dt=  1.48402E-02 [y] conv_reason: 3
  newton =   4 [     187] linear =   448 [     24794] cuts =  0 [   0]
  --> SNES Linear/Non-Linear Iterations = 448 / 4
  --> SNES Residual: 0.110193E-13 0.244873E-18 0.193647E-15
  --> max change: dpmx=   2.2057E+03

 --> appending to hdf5 output file: 2D_T_refinedmesh.h5
      0.18 Seconds to write HDF5 file.

== RICHARDS FLOW ===============================================================
  0 2r: 7.87E-07 2x: 0.00E+00 2u: 0.00E+00 ir: 2.52E-08 iu: 0.00E+00 rsn:   0
  1 2r: 2.47E-07 2x: 3.03E+07 2u: 3.65E+04 ir: 7.02E-08 iu: 9.04E+02 rsn:   0
  2 2r: 1.60E-10 2x: 3.03E+07 2u: 6.55E+02 ir: 1.03E-11 iu: 3.61E+01 rsn:   0
  3 2r: 1.29E-13 2x: 3.03E+07 2u: 6.38E+00 ir: 1.95E-15 iu: 6.39E-02 rsn:   0
  4 2r: 1.09E-14 2x: 3.03E+07 2u: 9.97E-03 ir: 1.82E-16 iu: 7.70E-05 rsn: stol

 Step     54 Time=  9.58904E-01 Dt=  2.73973E-02 [y] conv_reason: 4
  newton =   4 [     191] linear =   550 [     25344] cuts =  0 [   0]
  --> SNES Linear/Non-Linear Iterations = 550 / 4
  --> SNES Residual: 0.109216E-13 0.242703E-18 0.182241E-15
  --> max change: dpmx=   8.6823E+02

 --> appending to hdf5 output file: 2D_T_refinedmesh.h5
      0.02 Seconds to write HDF5 file.

== RICHARDS FLOW ===============================================================
  0 2r: 5.31E-07 2x: 0.00E+00 2u: 0.00E+00 ir: 1.00E-08 iu: 0.00E+00 rsn:   0
  1 2r: 1.99E-07 2x: 3.03E+07 2u: 2.51E+04 ir: 6.38E-08 iu: 2.92E+02 rsn:   0
  2 2r: 2.02E-11 2x: 3.03E+07 2u: 1.33E+02 ir: 2.80E-12 iu: 3.98E+00 rsn:   0
  3 2r: 1.11E-14 2x: 3.03E+07 2u: 8.20E-01 ir: 2.01E-16 iu: 7.94E-03 rsn:   0
  4 2r: 1.10E-14 2x: 3.03E+07 2u: 1.44E-04 ir: 1.87E-16 iu: 9.04E-07 rsn: stol

 Step     55 Time=  9.86301E-01 Dt=  2.73973E-02 [y] conv_reason: 4
  newton =   4 [     195] linear =   634 [     25978] cuts =  0 [   0]
  --> SNES Linear/Non-Linear Iterations = 634 / 4
  --> SNES Residual: 0.110498E-13 0.245550E-18 0.186889E-15
  --> max change: dpmx=   2.8761E+02

 --> appending to hdf5 output file: 2D_T_refinedmesh.h5
      0.03 Seconds to write HDF5 file.

== RICHARDS FLOW ===============================================================
  0 2r: 4.05E-07 2x: 0.00E+00 2u: 0.00E+00 ir: 8.52E-09 iu: 0.00E+00 rsn:   0
  1 2r: 6.61E-08 2x: 3.03E+07 2u: 1.06E+04 ir: 2.93E-08 iu: 7.66E+01 rsn:   0
  2 2r: 3.46E-11 2x: 3.03E+07 2u: 2.46E+01 ir: 2.62E-11 iu: 2.44E-01 rsn:   0
  3 2r: 1.09E-14 2x: 3.03E+07 2u: 5.36E-02 ir: 1.86E-16 iu: 5.39E-04 rsn: stol

 Step     56 Time=  1.00000E+00 Dt=  1.36986E-02 [y] conv_reason: 4
  newton =   3 [     198] linear =   473 [     26451] cuts =  0 [   0]
  --> SNES Linear/Non-Linear Iterations = 473 / 3
  --> SNES Residual: 0.109393E-13 0.243096E-18 0.186221E-15
  --> max change: dpmx=   7.6395E+01

 --> appending to hdf5 output file: 2D_T_refinedmesh.h5
      0.03 Seconds to write HDF5 file.
 --> Dump checkpoint file: 2D_T_refinedmesh-restart.h5
      Seconds to write to checkpoint file:       0.04

PMCSubsurfaceFlow
 Total Time: 1.2379E+02 seconds

 FLOW TS SNES steps = 56  newton = 198  linear = 26451  cuts = 0
 FLOW TS SNES Wasted Linear Iterations = 0
 FLOW TS SNES Wasted Newton Iterations = 0
 FLOW TS SNES time = 122.8 seconds

 Wall Clock Time:  1.2609E+02 [sec]   2.1015E+00 [min]   3.5025E-02 [hr]
