 PSLAVE version 18.25. Watermark Numerical Computing.

 Enter command to run model: 
 Waiting for signal that PEST is alive ....
 Note: this may take until end of current optimisation iteration if you are
       restarting a lost slave in mid-PEST run too soon after it was lost.

 Waiting for PEST....
 PEST is alive: waiting for command to run model ....
 (Press <Ctl-C> if you wish to stop PSLAVE execution.)
 Running model ....

=================
  PFLOTRAN v6.0
=================

"grid_structured_type" set to default value.
pflotran card:: NUMERICAL_METHODS
pflotran card:: NUMERICAL_METHODS
pflotran card:: CHEMISTRY
pflotran card:: GRID
pflotran card:: FLUID_PROPERTY
"FLUID_PROPERTY,diffusion_coefficient units" set to default value.
pflotran card:: MATERIAL_PROPERTY
  Name :: soil1
pflotran card:: CHARACTERISTIC_CURVES
  Name :: default
 WARNING: Mualem-van Genuchten relative permeability function is being used without SMOOTH option.
pflotran card:: OUTPUT
pflotran card:: TIME
pflotran card:: REGION
all
pflotran card:: REGION
west
pflotran card:: REGION
east
pflotran card:: REGION
middle
pflotran card:: OBSERVATION
pflotran card:: FLOW_CONDITION
initial
pflotran card:: FLOW_CONDITION
inlet
pflotran card:: FLOW_CONDITION
outlet
pflotran card:: TRANSPORT_CONDITION
initial
pflotran card:: TRANSPORT_CONDITION
inlet
pflotran card:: CONSTRAINT
initial
Constraint Species: Tracer
pflotran card:: CONSTRAINT
inlet
Constraint Species: Tracer
pflotran card:: INITIAL_CONDITION
"Initial Condition name" set to default value.
pflotran card:: BOUNDARY_CONDITION
pflotran card:: BOUNDARY_CONDITION
pflotran card:: STRATA
pflotran card:: END_SUBSURFACE

Extent of Gridded Domain
 X: 0.000000E+00 - 4.000000E+01
 Y: 0.000000E+00 - 1.000000E+00
 Z: 0.000000E+00 - 1.000000E+00

Size of Gridded Domain
 Number of grid cells: 100

Number of active grid cells: 100
Number of inactive grid cells: 0

  Setting up TRAN Realization
  Finished setting up TRAN Realization
Default HDF5 method is used in Initialization
  Beginning setup of FLOW SNES
 number of dofs =   1, number of phases =   1
 mode = Richards: p
  Finished setting up FLOW SNES
mode = Reactive Transport
  Beginning setup of TRAN SNES
  Finished setting up TRAN SNES

 Requested processors and decomposition =     1, npx,y,z=   -1  -1  -1
 Actual decomposition: npx,y,z=    1   1   1


FLOW Time Stepper SNES
      maximum number of steps: 999999
constant time steps threshold: 5
       maximum number of cuts: 16
             reduction factor: 5.000000E-01
        maximum growth factor: 2.000000E+00
                 acceleration: on
       acceleration threshold: 5
       number of ramp entries: 5
                ramp entry #1: 2.0000
                ramp entry #2: 2.0000
                ramp entry #3: 2.0000
                ramp entry #4: 2.0000
                ramp entry #5: 2.0000
                ramp entry #6: 1.8000
                ramp entry #7: 1.6000
                ramp entry #8: 1.4000
                ramp entry #9: 1.2000
               ramp entry #10: 1.0000
               ramp entry #11: 1.0000
               ramp entry #12: 1.0000
               ramp entry #13: 1.0000

FLOW Newton Solver
                         atol: 1.000000E-50
                         rtol: 1.000000E-08
                         stol: 1.000000E-08
                         dtol: 1.000000E+04
                      maxnorm: 1.000000E+20
                    inftolres: -9.990000E+02
                    inftolupd: -9.990000E+02
                 inftolrelupd: -9.990000E+02
                 inftolsclres: -9.990000E+02
                     max iter: 50
                     min iter: 1
                         maxf: 10000
                  matrix type: baij
         precond. matrix type: baij
               inexact newton: off
            print convergence: on
   print detailed convergence: off
          check infinity norm: on

FLOW Linear Solver
                       solver: bcgs
               preconditioner: ilu
                         atol: 1.000000E-50
                         rtol: 1.000000E-05
                         dtol: 1.000000E+04
            maximum iteration: 10000

TRAN Time Stepper SNES
      maximum number of steps: 999999
constant time steps threshold: 5
       maximum number of cuts: 16
             reduction factor: 5.000000E-01
        maximum growth factor: 2.000000E+00
                 acceleration: on
       acceleration threshold: 5
       number of ramp entries: 5
                ramp entry #1: 2.0000
                ramp entry #2: 2.0000
                ramp entry #3: 2.0000
                ramp entry #4: 2.0000
                ramp entry #5: 2.0000
                ramp entry #6: 1.8000
                ramp entry #7: 1.6000
                ramp entry #8: 1.4000
                ramp entry #9: 1.2000
               ramp entry #10: 1.0000
               ramp entry #11: 1.0000
               ramp entry #12: 1.0000
               ramp entry #13: 1.0000

TRAN Newton Solver
                         atol: 1.000000E-50
                         rtol: 1.000000E-08
                         stol: 1.000000E-08
                         dtol: 1.000000E+04
                      maxnorm: 1.000000E+20
                    inftolres: -9.990000E+02
                    inftolupd: -9.990000E+02
                 inftolrelupd: -9.990000E+02
                 inftolsclres: -9.990000E+02
                     max iter: 50
                     min iter: 1
                         maxf: 10000
                  matrix type: baij
         precond. matrix type: baij
               inexact newton: off
            print convergence: on
   print detailed convergence: off
          check infinity norm: on

TRAN Linear Solver
                       solver: bcgs
               preconditioner: ilu
                         atol: 1.000000E-50
                         rtol: 1.000000E-05
                         dtol: 1.000000E+04
            maximum iteration: 10000


 Finished Initialization


== RICHARDS FLOW ===============================================================
  0 2r: 2.68E-06 2x: 0.00E+00 2u: 0.00E+00 ir: 2.68E-06 iu: 0.00E+00 rsn:   0
  1 2r: 2.72E-15 2x: 1.26E+06 2u: 1.80E+00 ir: 6.66E-16 iu: 4.26E-01 rsn: rtol

 Step      1 Time=  4.16667E-05 Dt=  4.16667E-05 [d] conv_reason: 3
  newton =   1 [       1] linear =     1 [         1] cuts =  0 [   0]
  --> SNES Linear/Non-Linear Iterations = 1 / 1
  --> SNES Residual: 0.271948E-14 0.271948E-16 0.666134E-15
  --> max change: dpmx=   4.2592E-01

== REACTIVE TRANSPORT ==========================================================
  0 2r: 4.65E-01 2x: 0.00E+00 2u: 0.00E+00 ir: 4.65E-01 iu: 0.00E+00 rsn:   0
  1 2r: 6.78E-21 2x: 1.64E-02 2u: 1.64E-02 ir: 6.78E-21 iu: 1.64E-02 rsn: rtol

 Step      1 Time=  4.16667E-05 Dt=  4.16667E-05 [d] conv_reason: 3
  newton =   1 [       1] linear =     1 [         1] cuts =  0 [   0]
  --> SNES Linear/Non-Linear Iterations = 1 / 1
  --> SNES Residual: 0.677709E-20 0.677709E-20 0.677626E-20
  --> max change:  dcmx=   1.6396E-02  dc/dt=   4.5543E-03 [mol/s]
 Maximum Pore Velocity:   7.5911E+00 [m/d]

== RICHARDS FLOW ===============================================================
  0 2r: 1.25E-09 2x: 0.00E+00 2u: 0.00E+00 ir: 2.95E-10 iu: 0.00E+00 rsn:   0
  1 2r: 1.64E-15 2x: 1.26E+06 2u: 2.08E-01 ir: 4.44E-16 iu: 2.97E-02 rsn:   0
  2 2r: 7.20E-16 2x: 1.26E+06 2u: 2.66E-08 ir: 1.11E-16 iu: 5.34E-09 rsn: stol

 Step      2 Time=  1.25000E-04 Dt=  8.33333E-05 [d] conv_reason: 4
  newton =   2 [       3] linear =     2 [         3] cuts =  0 [   0]
  --> SNES Linear/Non-Linear Iterations = 2 / 2
  --> SNES Residual: 0.719507E-15 0.719507E-17 0.111022E-15
  --> max change: dpmx=   2.9739E-02

== REACTIVE TRANSPORT ==========================================================
  0 2r: 4.54E-01 2x: 0.00E+00 2u: 0.00E+00 ir: 4.54E-01 iu: 0.00E+00 rsn:   0
  1 2r: 3.47E-18 2x: 4.77E-02 2u: 3.13E-02 ir: 3.47E-18 iu: 3.13E-02 rsn: rtol

 Step      2 Time=  1.25000E-04 Dt=  8.33333E-05 [d] conv_reason: 3
  newton =   1 [       2] linear =     1 [         2] cuts =  0 [   0]
  --> SNES Linear/Non-Linear Iterations = 1 / 1
  --> SNES Residual: 0.346955E-17 0.346955E-17 0.346945E-17
  --> max change:  dcmx=   3.1258E-02  dc/dt=   4.3414E-03 [mol/s]
 Maximum Pore Velocity:   7.5911E+00 [m/d]

== RICHARDS FLOW ===============================================================
  0 2r: 7.20E-11 2x: 0.00E+00 2u: 0.00E+00 ir: 1.03E-11 iu: 0.00E+00 rsn:   0
  1 2r: 8.20E-16 2x: 1.26E+06 2u: 2.15E-02 ir: 2.22E-16 iu: 3.03E-03 rsn:   0
  2 2r: 5.00E-16 2x: 1.26E+06 2u: 7.21E-09 ir: 1.11E-16 iu: 1.46E-09 rsn: stol

 Step      3 Time=  2.91667E-04 Dt=  1.66667E-04 [d] conv_reason: 4
  newton =   2 [       5] linear =     2 [         5] cuts =  0 [   0]
  --> SNES Linear/Non-Linear Iterations = 2 / 2
  --> SNES Residual: 0.499600E-15 0.499600E-17 0.111022E-15
  --> max change: dpmx=   3.0349E-03

== REACTIVE TRANSPORT ==========================================================
  0 2r: 4.33E-01 2x: 0.00E+00 2u: 0.00E+00 ir: 4.33E-01 iu: 0.00E+00 rsn:   0
  1 2r: 1.11E-16 2x: 1.05E-01 2u: 5.71E-02 ir: 1.11E-16 iu: 5.70E-02 rsn: rtol

 Step      3 Time=  2.91667E-04 Dt=  1.66667E-04 [d] conv_reason: 3
  newton =   1 [       3] linear =     1 [         3] cuts =  0 [   0]
  --> SNES Linear/Non-Linear Iterations = 1 / 1
  --> SNES Residual: 0.111023E-15 0.111023E-15 0.111022E-15
  --> max change:  dcmx=   5.6986E-02  dc/dt=   3.9574E-03 [mol/s]
 Maximum Pore Velocity:   7.5911E+00 [m/d]

== RICHARDS FLOW ===============================================================
  0 2r: 3.73E-12 2x: 0.00E+00 2u: 0.00E+00 ir: 5.26E-13 iu: 0.00E+00 rsn:   0
  1 2r: 6.09E-16 2x: 1.26E+06 2u: 1.18E-03 ir: 1.67E-16 iu: 1.67E-04 rsn: stol

 Step      4 Time=  6.25000E-04 Dt=  3.33333E-04 [d] conv_reason: 4
  newton =   1 [       6] linear =     1 [         6] cuts =  0 [   0]
  --> SNES Linear/Non-Linear Iterations = 1 / 1
  --> SNES Residual: 0.609360E-15 0.609360E-17 0.166533E-15
  --> max change: dpmx=   1.6671E-04

== REACTIVE TRANSPORT ==========================================================
  0 2r: 3.95E-01 2x: 0.00E+00 2u: 0.00E+00 ir: 3.95E-01 iu: 0.00E+00 rsn:   0
  1 2r: 1.11E-16 2x: 2.01E-01 2u: 9.65E-02 ir: 1.11E-16 iu: 9.58E-02 rsn: rtol

 Step      4 Time=  6.25000E-04 Dt=  3.33333E-04 [d] conv_reason: 3
  newton =   1 [       4] linear =     1 [         4] cuts =  0 [   0]
  --> SNES Linear/Non-Linear Iterations = 1 / 1
  --> SNES Residual: 0.111239E-15 0.111239E-15 0.111022E-15
  --> max change:  dcmx=   9.5783E-02  dc/dt=   3.3258E-03 [mol/s]
 Maximum Pore Velocity:   7.5911E+00 [m/d]

== RICHARDS FLOW ===============================================================
  0 2r: 1.02E-13 2x: 0.00E+00 2u: 0.00E+00 ir: 1.45E-14 iu: 0.00E+00 rsn:   0
  1 2r: 5.31E-16 2x: 1.26E+06 2u: 3.29E-05 ir: 1.25E-16 iu: 4.65E-06 rsn: stol

 Step      5 Time=  1.29167E-03 Dt=  6.66667E-04 [d] conv_reason: 4
  newton =   1 [       7] linear =     1 [         7] cuts =  0 [   0]
  --> SNES Linear/Non-Linear Iterations = 1 / 1
  --> SNES Residual: 0.530995E-15 0.530995E-17 0.124900E-15
  --> max change: dpmx=   4.6458E-06

== REACTIVE TRANSPORT ==========================================================
  0 2r: 3.34E-01 2x: 0.00E+00 2u: 0.00E+00 ir: 3.32E-01 iu: 0.00E+00 rsn:   0
  1 2r: 1.12E-16 2x: 3.45E-01 2u: 1.45E-01 ir: 1.11E-16 iu: 1.40E-01 rsn: rtol

 Step      5 Time=  1.29167E-03 Dt=  6.66667E-04 [d] conv_reason: 3
  newton =   1 [       5] linear =     1 [         5] cuts =  0 [   0]
  --> SNES Linear/Non-Linear Iterations = 1 / 1
  --> SNES Residual: 0.111941E-15 0.111941E-15 0.111022E-15
  --> max change:  dcmx=   1.4045E-01  dc/dt=   2.4383E-03 [mol/s]
 Maximum Pore Velocity:   7.5911E+00 [m/d]

== RICHARDS FLOW ===============================================================
  0 2r: 1.51E-15 2x: 0.00E+00 2u: 0.00E+00 ir: 3.05E-16 iu: 0.00E+00 rsn:   0
  1 2r: 4.11E-16 2x: 1.26E+06 2u: 4.61E-07 ir: 1.32E-16 iu: 6.52E-08 rsn: stol

 Step      6 Time=  2.62500E-03 Dt=  1.33333E-03 [d] conv_reason: 4
  newton =   1 [       8] linear =     1 [         8] cuts =  0 [   0]
  --> SNES Linear/Non-Linear Iterations = 1 / 1
  --> SNES Residual: 0.411331E-15 0.411331E-17 0.131839E-15
  --> max change: dpmx=   6.5163E-08

== REACTIVE TRANSPORT ==========================================================
  0 2r: 2.51E-01 2x: 0.00E+00 2u: 0.00E+00 ir: 2.43E-01 iu: 0.00E+00 rsn:   0
  1 2r: 1.24E-16 2x: 5.27E-01 2u: 1.88E-01 ir: 1.11E-16 iu: 1.68E-01 rsn: rtol

 Step      6 Time=  2.62500E-03 Dt=  1.33333E-03 [d] conv_reason: 3
  newton =   1 [       6] linear =     1 [         6] cuts =  0 [   0]
  --> SNES Linear/Non-Linear Iterations = 1 / 1
  --> SNES Residual: 0.124202E-15 0.124202E-15 0.111022E-15
  --> max change:  dcmx=   1.6820E-01  dc/dt=   1.4601E-03 [mol/s]
 Maximum Pore Velocity:   7.5911E+00 [m/d]

== RICHARDS FLOW ===============================================================
  0 2r: 4.13E-16 2x: 0.00E+00 2u: 0.00E+00 ir: 1.35E-16 iu: 0.00E+00 rsn:   0
  1 2r: 5.13E-16 2x: 1.26E+06 2u: 3.18E-09 ir: 1.49E-16 iu: 4.51E-10 rsn: stol

 Step      7 Time=  5.29167E-03 Dt=  2.66667E-03 [d] conv_reason: 4
  newton =   1 [       9] linear =     1 [         9] cuts =  0 [   0]
  --> SNES Linear/Non-Linear Iterations = 1 / 1
  --> SNES Residual: 0.513279E-15 0.513279E-17 0.149186E-15
  --> max change: dpmx=   4.5111E-10

== REACTIVE TRANSPORT ==========================================================
  0 2r: 1.62E-01 2x: 0.00E+00 2u: 0.00E+00 ir: 1.46E-01 iu: 0.00E+00 rsn:   0
  1 2r: 1.41E-17 2x: 7.25E-01 2u: 2.19E-01 ir: 1.39E-17 iu: 1.57E-01 rsn: rtol

 Step      7 Time=  5.29167E-03 Dt=  2.66667E-03 [d] conv_reason: 3
  newton =   1 [       7] linear =     1 [         7] cuts =  0 [   0]
  --> SNES Linear/Non-Linear Iterations = 1 / 1
  --> SNES Residual: 0.140956E-16 0.140956E-16 0.138778E-16
  --> max change:  dcmx=   1.5709E-01  dc/dt=   6.8180E-04 [mol/s]
 Maximum Pore Velocity:   7.5911E+00 [m/d]

== RICHARDS FLOW ===============================================================
  0 2r: 5.11E-16 2x: 0.00E+00 2u: 0.00E+00 ir: 1.49E-16 iu: 0.00E+00 rsn:   0
  1 2r: 3.67E-16 2x: 1.26E+06 2u: 1.10E-10 ir: 1.34E-16 iu: 2.34E-11 rsn: stol

 Step      8 Time=  1.06250E-02 Dt=  5.33333E-03 [d] conv_reason: 4
  newton =   1 [      10] linear =     1 [        10] cuts =  0 [   0]
  --> SNES Linear/Non-Linear Iterations = 1 / 1
  --> SNES Residual: 0.367463E-15 0.367463E-17 0.133574E-15
  --> max change: dpmx=   2.9104E-11

== REACTIVE TRANSPORT ==========================================================
  0 2r: 9.48E-02 2x: 0.00E+00 2u: 0.00E+00 ir: 6.80E-02 iu: 0.00E+00 rsn:   0
  1 2r: 2.33E-17 2x: 9.30E-01 2u: 2.54E-01 ir: 1.39E-17 iu: 1.69E-01 rsn: rtol

 Step      8 Time=  1.06250E-02 Dt=  5.33333E-03 [d] conv_reason: 3
  newton =   1 [       8] linear =     1 [         8] cuts =  0 [   0]
  --> SNES Linear/Non-Linear Iterations = 1 / 1
  --> SNES Residual: 0.233429E-16 0.233429E-16 0.138778E-16
  --> max change:  dcmx=   1.6861E-01  dc/dt=   3.6591E-04 [mol/s]
 Maximum Pore Velocity:   7.5911E+00 [m/d]

== RICHARDS FLOW ===============================================================
  0 2r: 3.67E-16 2x: 0.00E+00 2u: 0.00E+00 ir: 1.34E-16 iu: 0.00E+00 rsn:   0
  1 2r: 4.65E-16 2x: 1.26E+06 2u: 3.02E-10 ir: 1.41E-16 iu: 4.82E-11 rsn: stol

 Step      9 Time=  2.12917E-02 Dt=  1.06667E-02 [d] conv_reason: 4
  newton =   1 [      11] linear =     1 [        11] cuts =  0 [   0]
  --> SNES Linear/Non-Linear Iterations = 1 / 1
  --> SNES Residual: 0.464784E-15 0.464784E-17 0.140513E-15
  --> max change: dpmx=   5.8208E-11

== REACTIVE TRANSPORT ==========================================================
  0 2r: 5.50E-02 2x: 0.00E+00 2u: 0.00E+00 ir: 3.65E-02 iu: 0.00E+00 rsn:   0
  1 2r: 5.11E-17 2x: 1.15E+00 2u: 3.06E-01 ir: 3.47E-17 iu: 1.68E-01 rsn: rtol

 Step      9 Time=  2.12917E-02 Dt=  1.06667E-02 [d] conv_reason: 3
  newton =   1 [       9] linear =     1 [         9] cuts =  0 [   0]
  --> SNES Linear/Non-Linear Iterations = 1 / 1
  --> SNES Residual: 0.511358E-16 0.511358E-16 0.346945E-16
  --> max change:  dcmx=   1.6806E-01  dc/dt=   1.8236E-04 [mol/s]
 Maximum Pore Velocity:   7.5911E+00 [m/d]

== RICHARDS FLOW ===============================================================
  0 2r: 4.65E-16 2x: 0.00E+00 2u: 0.00E+00 ir: 1.40E-16 iu: 0.00E+00 rsn:   0
  1 2r: 4.28E-16 2x: 1.26E+06 2u: 1.97E-10 ir: 1.18E-16 iu: 3.30E-11 rsn: stol

 Step     10 Time=  4.26250E-02 Dt=  2.13333E-02 [d] conv_reason: 4
  newton =   1 [      12] linear =     1 [        12] cuts =  0 [   0]
  --> SNES Linear/Non-Linear Iterations = 1 / 1
  --> SNES Residual: 0.428244E-15 0.428244E-17 0.118395E-15
  --> max change: dpmx=   2.9104E-11

== REACTIVE TRANSPORT ==========================================================
  0 2r: 3.31E-02 2x: 0.00E+00 2u: 0.00E+00 ir: 1.82E-02 iu: 0.00E+00 rsn:   0
  1 2r: 6.95E-17 2x: 1.42E+00 2u: 3.78E-01 ir: 4.51E-17 iu: 1.76E-01 rsn: rtol

 Step     10 Time=  4.26250E-02 Dt=  2.13333E-02 [d] conv_reason: 3
  newton =   1 [      10] linear =     1 [        10] cuts =  0 [   0]
  --> SNES Linear/Non-Linear Iterations = 1 / 1
  --> SNES Residual: 0.695095E-16 0.695095E-16 0.451028E-16
  --> max change:  dcmx=   1.7596E-01  dc/dt=   9.5464E-05 [mol/s]
 Maximum Pore Velocity:   7.5911E+00 [m/d]

== RICHARDS FLOW ===============================================================
  0 2r: 4.29E-16 2x: 0.00E+00 2u: 0.00E+00 ir: 1.19E-16 iu: 0.00E+00 rsn:   0
  1 2r: 4.87E-16 2x: 1.26E+06 2u: 7.34E-11 ir: 1.48E-16 iu: 1.71E-11 rsn: stol

 Step     11 Time=  8.52917E-02 Dt=  4.26667E-02 [d] conv_reason: 4
  newton =   1 [      13] linear =     1 [        13] cuts =  0 [   0]
  --> SNES Linear/Non-Linear Iterations = 1 / 1
  --> SNES Residual: 0.486615E-15 0.486615E-17 0.148319E-15
  --> max change: dpmx=   2.9104E-11

== REACTIVE TRANSPORT ==========================================================
  0 2r: 2.05E-02 2x: 0.00E+00 2u: 0.00E+00 ir: 9.52E-03 iu: 0.00E+00 rsn:   0
  1 2r: 1.27E-16 2x: 1.75E+00 2u: 4.79E-01 ir: 8.67E-17 iu: 1.86E-01 rsn: rtol

 Step     11 Time=  8.52917E-02 Dt=  4.26667E-02 [d] conv_reason: 3
  newton =   1 [      11] linear =     1 [        11] cuts =  0 [   0]
  --> SNES Linear/Non-Linear Iterations = 1 / 1
  --> SNES Residual: 0.126558E-15 0.126558E-15 0.867362E-16
  --> max change:  dcmx=   1.8599E-01  dc/dt=   5.0452E-05 [mol/s]
 Maximum Pore Velocity:   7.5911E+00 [m/d]
 CFL Limiting ( 1.0):   8.5333E-02 ->   5.2693E-02 [d]

== RICHARDS FLOW ===============================================================
  0 2r: 4.87E-16 2x: 0.00E+00 2u: 0.00E+00 ir: 1.48E-16 iu: 0.00E+00 rsn:   0
  1 2r: 4.87E-16 2x: 1.26E+06 2u: 6.12E-11 ir: 1.48E-16 iu: 1.44E-11 rsn: stol

 Step     12 Time=  1.70625E-01 Dt=  8.53333E-02 [d] conv_reason: 4
  newton =   1 [      14] linear =     1 [        14] cuts =  0 [   0]
  --> SNES Linear/Non-Linear Iterations = 1 / 1
  --> SNES Residual: 0.486615E-15 0.486615E-17 0.148319E-15
  --> max change: dpmx=   0.0000E+00

== REACTIVE TRANSPORT ==========================================================
  0 2r: 1.30E-02 2x: 0.00E+00 2u: 0.00E+00 ir: 5.03E-03 iu: 0.00E+00 rsn:   0
  1 2r: 1.16E-16 2x: 2.05E+00 2u: 4.30E-01 ir: 8.33E-17 iu: 1.44E-01 rsn: rtol

 Step     12 Time=  1.37985E-01 Dt=  5.26933E-02 [d] conv_reason: 3
  newton =   1 [      12] linear =     1 [        12] cuts =  0 [   0]
  --> SNES Linear/Non-Linear Iterations = 1 / 1
  --> SNES Residual: 0.116381E-15 0.116381E-15 0.832667E-16
  --> max change:  dcmx=   1.4448E-01  dc/dt=   3.1735E-05 [mol/s]
 Maximum Pore Velocity:   7.5911E+00 [m/d]
 CFL Limiting ( 1.0):   1.0539E-01 ->   5.2693E-02 [d]

== REACTIVE TRANSPORT ==========================================================
  0 2r: 9.41E-03 2x: 0.00E+00 2u: 0.00E+00 ir: 3.16E-03 iu: 0.00E+00 rsn:   0
  1 2r: 1.00E-16 2x: 2.21E+00 2u: 2.30E-01 ir: 5.55E-17 iu: 7.20E-02 rsn: rtol

 Step     13 Time=  1.70625E-01 Dt=  3.26400E-02 [d] conv_reason: 3
  newton =   1 [      13] linear =     1 [        13] cuts =  0 [   0]
  --> SNES Linear/Non-Linear Iterations = 1 / 1
  --> SNES Residual: 0.100424E-15 0.100424E-15 0.555112E-16
  --> max change:  dcmx=   7.2032E-02  dc/dt=   2.5542E-05 [mol/s]
 Maximum Pore Velocity:   7.5911E+00 [m/d]
 CFL Limiting ( 1.0):   6.5280E-02 ->   5.2693E-02 [d]

== RICHARDS FLOW ===============================================================
  0 2r: 4.87E-16 2x: 0.00E+00 2u: 0.00E+00 ir: 1.48E-16 iu: 0.00E+00 rsn:   0
  1 2r: 4.87E-16 2x: 1.26E+06 2u: 6.12E-11 ir: 1.48E-16 iu: 1.44E-11 rsn: stol

 Step     13 Time=  3.41292E-01 Dt=  1.70667E-01 [d] conv_reason: 4
  newton =   1 [      15] linear =     1 [        15] cuts =  0 [   0]
  --> SNES Linear/Non-Linear Iterations = 1 / 1
  --> SNES Residual: 0.486615E-15 0.486615E-17 0.148319E-15
  --> max change: dpmx=   0.0000E+00

== REACTIVE TRANSPORT ==========================================================
  0 2r: 8.15E-03 2x: 0.00E+00 2u: 0.00E+00 ir: 2.55E-03 iu: 0.00E+00 rsn:   0
  1 2r: 7.96E-17 2x: 2.43E+00 2u: 3.15E-01 ir: 4.34E-17 iu: 9.09E-02 rsn: rtol

 Step     14 Time=  2.23318E-01 Dt=  5.26933E-02 [d] conv_reason: 3
  newton =   1 [      14] linear =     1 [        14] cuts =  0 [   0]
  --> SNES Linear/Non-Linear Iterations = 1 / 1
  --> SNES Residual: 0.796331E-16 0.796331E-16 0.433681E-16
  --> max change:  dcmx=   9.0950E-02  dc/dt=   1.9977E-05 [mol/s]
 Maximum Pore Velocity:   7.5911E+00 [m/d]
 CFL Limiting ( 1.0):   1.0539E-01 ->   5.2693E-02 [d]

== REACTIVE TRANSPORT ==========================================================
  0 2r: 6.91E-03 2x: 0.00E+00 2u: 0.00E+00 ir: 1.99E-03 iu: 0.00E+00 rsn:   0
  1 2r: 1.45E-16 2x: 2.62E+00 2u: 2.78E-01 ir: 7.63E-17 iu: 7.52E-02 rsn: rtol

 Step     15 Time=  2.76012E-01 Dt=  5.26933E-02 [d] conv_reason: 3
  newton =   1 [      15] linear =     1 [        15] cuts =  0 [   0]
  --> SNES Linear/Non-Linear Iterations = 1 / 1
  --> SNES Residual: 0.144595E-15 0.144595E-15 0.763278E-16
  --> max change:  dcmx=   7.5200E-02  dc/dt=   1.6518E-05 [mol/s]
 Maximum Pore Velocity:   7.5911E+00 [m/d]
 CFL Limiting ( 1.0):   1.0539E-01 ->   5.2693E-02 [d]

== REACTIVE TRANSPORT ==========================================================
  0 2r: 6.10E-03 2x: 0.00E+00 2u: 0.00E+00 ir: 1.65E-03 iu: 0.00E+00 rsn:   0
  1 2r: 1.40E-16 2x: 2.79E+00 2u: 2.52E-01 ir: 8.33E-17 iu: 6.46E-02 rsn: rtol

 Step     16 Time=  3.28705E-01 Dt=  5.26933E-02 [d] conv_reason: 3
  newton =   1 [      16] linear =     1 [        16] cuts =  0 [   0]
  --> SNES Linear/Non-Linear Iterations = 1 / 1
  --> SNES Residual: 0.140358E-15 0.140358E-15 0.832667E-16
  --> max change:  dcmx=   6.4593E-02  dc/dt=   1.4188E-05 [mol/s]
 Maximum Pore Velocity:   7.5911E+00 [m/d]
 CFL Limiting ( 1.0):   1.0539E-01 ->   5.2693E-02 [d]

== REACTIVE TRANSPORT ==========================================================
  0 2r: 5.52E-03 2x: 0.00E+00 2u: 0.00E+00 ir: 1.41E-03 iu: 0.00E+00 rsn:   0
  1 2r: 1.23E-16 2x: 2.83E+00 2u: 5.90E-02 ir: 6.94E-17 iu: 1.49E-02 rsn: rtol

 Step     17 Time=  3.41292E-01 Dt=  1.25867E-02 [d] conv_reason: 3
  newton =   1 [      17] linear =     1 [        17] cuts =  0 [   0]
  --> SNES Linear/Non-Linear Iterations = 1 / 1
  --> SNES Residual: 0.122999E-15 0.122999E-15 0.693889E-16
  --> max change:  dcmx=   1.4931E-02  dc/dt=   1.3730E-05 [mol/s]
 Maximum Pore Velocity:   7.5911E+00 [m/d]

== RICHARDS FLOW ===============================================================
  0 2r: 4.87E-16 2x: 0.00E+00 2u: 0.00E+00 ir: 1.48E-16 iu: 0.00E+00 rsn:   0
  1 2r: 4.87E-16 2x: 1.26E+06 2u: 6.12E-11 ir: 1.48E-16 iu: 1.44E-11 rsn: stol

 Step     14 Time=  6.82625E-01 Dt=  3.41333E-01 [d] conv_reason: 4
  newton =   1 [      16] linear =     1 [        16] cuts =  0 [   0]
  --> SNES Linear/Non-Linear Iterations = 1 / 1
  --> SNES Residual: 0.486615E-15 0.486615E-17 0.148319E-15
  --> max change: dpmx=   0.0000E+00

== REACTIVE TRANSPORT ==========================================================
  0 2r: 5.41E-03 2x: 0.00E+00 2u: 0.00E+00 ir: 1.37E-03 iu: 0.00E+00 rsn:   0
  1 2r: 2.28E-16 2x: 2.98E+00 2u: 2.28E-01 ir: 1.46E-16 iu: 5.54E-02 rsn: rtol

 Step     18 Time=  3.93985E-01 Dt=  5.26933E-02 [d] conv_reason: 3
  newton =   1 [      18] linear =     1 [        18] cuts =  0 [   0]
  --> SNES Linear/Non-Linear Iterations = 1 / 1
  --> SNES Residual: 0.227659E-15 0.227659E-15 0.145717E-15
  --> max change:  dcmx=   5.5399E-02  dc/dt=   1.2168E-05 [mol/s]
 Maximum Pore Velocity:   7.5911E+00 [m/d]
 CFL Limiting ( 1.0):   1.0539E-01 ->   5.2693E-02 [d]

== REACTIVE TRANSPORT ==========================================================
  0 2r: 5.00E-03 2x: 0.00E+00 2u: 0.00E+00 ir: 1.21E-03 iu: 0.00E+00 rsn:   0
  1 2r: 1.44E-16 2x: 3.13E+00 2u: 2.14E-01 ir: 7.63E-17 iu: 4.99E-02 rsn: rtol

 Step     19 Time=  4.46678E-01 Dt=  5.26933E-02 [d] conv_reason: 3
  newton =   1 [      19] linear =     1 [        19] cuts =  0 [   0]
  --> SNES Linear/Non-Linear Iterations = 1 / 1
  --> SNES Residual: 0.143611E-15 0.143611E-15 0.763278E-16
  --> max change:  dcmx=   4.9950E-02  dc/dt=   1.0971E-05 [mol/s]
 Maximum Pore Velocity:   7.5911E+00 [m/d]
 CFL Limiting ( 1.0):   1.0539E-01 ->   5.2693E-02 [d]

== REACTIVE TRANSPORT ==========================================================
  0 2r: 4.68E-03 2x: 0.00E+00 2u: 0.00E+00 ir: 1.09E-03 iu: 0.00E+00 rsn:   0
  1 2r: 1.24E-16 2x: 3.26E+00 2u: 2.02E-01 ir: 5.03E-17 iu: 4.57E-02 rsn: rtol

 Step     20 Time=  4.99372E-01 Dt=  5.26933E-02 [d] conv_reason: 3
  newton =   1 [      20] linear =     1 [        20] cuts =  0 [   0]
  --> SNES Linear/Non-Linear Iterations = 1 / 1
  --> SNES Residual: 0.123974E-15 0.123974E-15 0.503070E-16
  --> max change:  dcmx=   4.5658E-02  dc/dt=   1.0029E-05 [mol/s]
 Maximum Pore Velocity:   7.5911E+00 [m/d]
 CFL Limiting ( 1.0):   1.0539E-01 ->   5.2693E-02 [d]

== REACTIVE TRANSPORT ==========================================================
  0 2r: 4.42E-03 2x: 0.00E+00 2u: 0.00E+00 ir: 1.00E-03 iu: 0.00E+00 rsn:   0
  1 2r: 1.84E-16 2x: 3.39E+00 2u: 1.92E-01 ir: 1.04E-16 iu: 4.21E-02 rsn: rtol

 Step     21 Time=  5.52065E-01 Dt=  5.26933E-02 [d] conv_reason: 3
  newton =   1 [      21] linear =     1 [        21] cuts =  0 [   0]
  --> SNES Linear/Non-Linear Iterations = 1 / 1
  --> SNES Residual: 0.183583E-15 0.183583E-15 0.104083E-15
  --> max change:  dcmx=   4.2123E-02  dc/dt=   9.2523E-06 [mol/s]
 Maximum Pore Velocity:   7.5911E+00 [m/d]
 CFL Limiting ( 1.0):   1.0539E-01 ->   5.2693E-02 [d]

== REACTIVE TRANSPORT ==========================================================
  0 2r: 4.21E-03 2x: 0.00E+00 2u: 0.00E+00 ir: 9.23E-04 iu: 0.00E+00 rsn:   0
  1 2r: 1.84E-16 2x: 3.51E+00 2u: 1.84E-01 ir: 8.85E-17 iu: 3.92E-02 rsn: rtol

 Step     22 Time=  6.04758E-01 Dt=  5.26933E-02 [d] conv_reason: 3
  newton =   1 [      22] linear =     1 [        22] cuts =  0 [   0]
  --> SNES Linear/Non-Linear Iterations = 1 / 1
  --> SNES Residual: 0.184066E-15 0.184066E-15 0.884709E-16
  --> max change:  dcmx=   3.9248E-02  dc/dt=   8.6207E-06 [mol/s]
 Maximum Pore Velocity:   7.5911E+00 [m/d]
 CFL Limiting ( 1.0):   1.0539E-01 ->   5.2693E-02 [d]

== REACTIVE TRANSPORT ==========================================================
  0 2r: 4.03E-03 2x: 0.00E+00 2u: 0.00E+00 ir: 8.60E-04 iu: 0.00E+00 rsn:   0
  1 2r: 1.86E-16 2x: 3.63E+00 2u: 1.77E-01 ir: 9.71E-17 iu: 3.68E-02 rsn: rtol

 Step     23 Time=  6.57452E-01 Dt=  5.26933E-02 [d] conv_reason: 3
  newton =   1 [      23] linear =     1 [        23] cuts =  0 [   0]
  --> SNES Linear/Non-Linear Iterations = 1 / 1
  --> SNES Residual: 0.185560E-15 0.185560E-15 0.971445E-16
  --> max change:  dcmx=   3.6795E-02  dc/dt=   8.0820E-06 [mol/s]
 Maximum Pore Velocity:   7.5911E+00 [m/d]
 CFL Limiting ( 1.0):   1.0539E-01 ->   5.2693E-02 [d]

== REACTIVE TRANSPORT ==========================================================
  0 2r: 3.87E-03 2x: 0.00E+00 2u: 0.00E+00 ir: 8.06E-04 iu: 0.00E+00 rsn:   0
  1 2r: 1.92E-16 2x: 3.69E+00 2u: 8.29E-02 ir: 1.04E-16 iu: 1.71E-02 rsn: rtol

 Step     24 Time=  6.82625E-01 Dt=  2.51734E-02 [d] conv_reason: 3
  newton =   1 [      24] linear =     1 [        24] cuts =  0 [   0]
  --> SNES Linear/Non-Linear Iterations = 1 / 1
  --> SNES Residual: 0.192388E-15 0.192388E-15 0.104083E-15
  --> max change:  dcmx=   1.7080E-02  dc/dt=   7.8531E-06 [mol/s]
 Maximum Pore Velocity:   7.5911E+00 [m/d]

== RICHARDS FLOW ===============================================================
  0 2r: 4.87E-16 2x: 0.00E+00 2u: 0.00E+00 ir: 1.48E-16 iu: 0.00E+00 rsn:   0
  1 2r: 4.87E-16 2x: 1.26E+06 2u: 6.12E-11 ir: 1.48E-16 iu: 1.44E-11 rsn: stol

 Step     15 Time=  1.36529E+00 Dt=  6.82667E-01 [d] conv_reason: 4
  newton =   1 [      17] linear =     1 [        17] cuts =  0 [   0]
  --> SNES Linear/Non-Linear Iterations = 1 / 1
  --> SNES Residual: 0.486615E-15 0.486615E-17 0.148319E-15
  --> max change: dpmx=   0.0000E+00

== REACTIVE TRANSPORT ==========================================================
  0 2r: 3.80E-03 2x: 0.00E+00 2u: 0.00E+00 ir: 7.83E-04 iu: 0.00E+00 rsn:   0
  1 2r: 1.79E-16 2x: 3.80E+00 2u: 1.68E-01 ir: 7.63E-17 iu: 3.38E-02 rsn: rtol

 Step     25 Time=  7.35318E-01 Dt=  5.26933E-02 [d] conv_reason: 3
  newton =   1 [      25] linear =     1 [        25] cuts =  0 [   0]
  --> SNES Linear/Non-Linear Iterations = 1 / 1
  --> SNES Residual: 0.178736E-15 0.178736E-15 0.763278E-16
  --> max change:  dcmx=   3.3796E-02  dc/dt=   7.4232E-06 [mol/s]
 Maximum Pore Velocity:   7.5911E+00 [m/d]
 CFL Limiting ( 1.0):   1.0539E-01 ->   5.2693E-02 [d]

== REACTIVE TRANSPORT ==========================================================
  0 2r: 3.67E-03 2x: 0.00E+00 2u: 0.00E+00 ir: 7.40E-04 iu: 0.00E+00 rsn:   0
  1 2r: 1.82E-16 2x: 3.90E+00 2u: 1.63E-01 ir: 8.33E-17 iu: 3.21E-02 rsn: rtol

 Step     26 Time=  7.88012E-01 Dt=  5.26933E-02 [d] conv_reason: 3
  newton =   1 [      26] linear =     1 [        26] cuts =  0 [   0]
  --> SNES Linear/Non-Linear Iterations = 1 / 1
  --> SNES Residual: 0.181780E-15 0.181780E-15 0.832667E-16
  --> max change:  dcmx=   3.2077E-02  dc/dt=   7.0458E-06 [mol/s]
 Maximum Pore Velocity:   7.5911E+00 [m/d]
 CFL Limiting ( 1.0):   1.0539E-01 ->   5.2693E-02 [d]

== REACTIVE TRANSPORT ==========================================================
  0 2r: 3.56E-03 2x: 0.00E+00 2u: 0.00E+00 ir: 7.03E-04 iu: 0.00E+00 rsn:   0
  1 2r: 2.21E-16 2x: 4.01E+00 2u: 1.58E-01 ir: 9.37E-17 iu: 3.06E-02 rsn: rtol

 Step     27 Time=  8.40705E-01 Dt=  5.26933E-02 [d] conv_reason: 3
  newton =   1 [      27] linear =     1 [        27] cuts =  0 [   0]
  --> SNES Linear/Non-Linear Iterations = 1 / 1
  --> SNES Residual: 0.221092E-15 0.221092E-15 0.936751E-16
  --> max change:  dcmx=   3.0573E-02  dc/dt=   6.7153E-06 [mol/s]
 Maximum Pore Velocity:   7.5911E+00 [m/d]
 CFL Limiting ( 1.0):   1.0539E-01 ->   5.2693E-02 [d]

== REACTIVE TRANSPORT ==========================================================
  0 2r: 3.46E-03 2x: 0.00E+00 2u: 0.00E+00 ir: 6.70E-04 iu: 0.00E+00 rsn:   0
  1 2r: 1.95E-16 2x: 4.11E+00 2u: 1.54E-01 ir: 9.02E-17 iu: 2.92E-02 rsn: rtol

 Step     28 Time=  8.93398E-01 Dt=  5.26933E-02 [d] conv_reason: 3
  newton =   1 [      28] linear =     1 [        28] cuts =  0 [   0]
  --> SNES Linear/Non-Linear Iterations = 1 / 1
  --> SNES Residual: 0.194809E-15 0.194809E-15 0.902056E-16
  --> max change:  dcmx=   2.9245E-02  dc/dt=   6.4236E-06 [mol/s]
 Maximum Pore Velocity:   7.5911E+00 [m/d]
 CFL Limiting ( 1.0):   1.0539E-01 ->   5.2693E-02 [d]

== REACTIVE TRANSPORT ==========================================================
  0 2r: 3.37E-03 2x: 0.00E+00 2u: 0.00E+00 ir: 6.41E-04 iu: 0.00E+00 rsn:   0
  1 2r: 1.94E-16 2x: 4.21E+00 2u: 1.50E-01 ir: 7.29E-17 iu: 2.81E-02 rsn: rtol

 Step     29 Time=  9.46092E-01 Dt=  5.26933E-02 [d] conv_reason: 3
  newton =   1 [      29] linear =     1 [        29] cuts =  0 [   0]
  --> SNES Linear/Non-Linear Iterations = 1 / 1
  --> SNES Residual: 0.194212E-15 0.194212E-15 0.728584E-16
  --> max change:  dcmx=   2.8051E-02  dc/dt=   6.1613E-06 [mol/s]
 Maximum Pore Velocity:   7.5911E+00 [m/d]
 CFL Limiting ( 1.0):   1.0539E-01 ->   5.2693E-02 [d]

== REACTIVE TRANSPORT ==========================================================
  0 2r: 3.28E-03 2x: 0.00E+00 2u: 0.00E+00 ir: 6.14E-04 iu: 0.00E+00 rsn:   0
  1 2r: 1.95E-16 2x: 4.30E+00 2u: 1.47E-01 ir: 8.15E-17 iu: 2.70E-02 rsn: rtol

 Step     30 Time=  9.98785E-01 Dt=  5.26933E-02 [d] conv_reason: 3
  newton =   1 [      30] linear =     1 [        30] cuts =  0 [   0]
  --> SNES Linear/Non-Linear Iterations = 1 / 1
  --> SNES Residual: 0.194745E-15 0.194745E-15 0.815320E-16
  --> max change:  dcmx=   2.6971E-02  dc/dt=   5.9241E-06 [mol/s]
 Maximum Pore Velocity:   7.5911E+00 [m/d]
 CFL Limiting ( 1.0):   1.0539E-01 ->   5.2693E-02 [d]

== REACTIVE TRANSPORT ==========================================================
  0 2r: 3.21E-03 2x: 0.00E+00 2u: 0.00E+00 ir: 5.91E-04 iu: 0.00E+00 rsn:   0
  1 2r: 1.91E-16 2x: 4.40E+00 2u: 1.43E-01 ir: 6.42E-17 iu: 2.60E-02 rsn: rtol

 Step     31 Time=  1.05148E+00 Dt=  5.26933E-02 [d] conv_reason: 3
  newton =   1 [      31] linear =     1 [        31] cuts =  0 [   0]
  --> SNES Linear/Non-Linear Iterations = 1 / 1
  --> SNES Residual: 0.191343E-15 0.191343E-15 0.641848E-16
  --> max change:  dcmx=   2.5989E-02  dc/dt=   5.7085E-06 [mol/s]
 Maximum Pore Velocity:   7.5911E+00 [m/d]
 CFL Limiting ( 1.0):   1.0539E-01 ->   5.2693E-02 [d]

== REACTIVE TRANSPORT ==========================================================
  0 2r: 3.14E-03 2x: 0.00E+00 2u: 0.00E+00 ir: 5.69E-04 iu: 0.00E+00 rsn:   0
  1 2r: 2.63E-16 2x: 4.49E+00 2u: 1.41E-01 ir: 9.71E-17 iu: 2.51E-02 rsn: rtol

 Step     32 Time=  1.10417E+00 Dt=  5.26933E-02 [d] conv_reason: 3
  newton =   1 [      32] linear =     1 [        32] cuts =  0 [   0]
  --> SNES Linear/Non-Linear Iterations = 1 / 1
  --> SNES Residual: 0.263298E-15 0.263298E-15 0.971445E-16
  --> max change:  dcmx=   2.5106E-02  dc/dt=   5.5146E-06 [mol/s]
 Maximum Pore Velocity:   7.5911E+00 [m/d]
 CFL Limiting ( 1.0):   1.0539E-01 ->   5.2693E-02 [d]

== REACTIVE TRANSPORT ==========================================================
  0 2r: 3.08E-03 2x: 0.00E+00 2u: 0.00E+00 ir: 5.50E-04 iu: 0.00E+00 rsn:   0
  1 2r: 2.16E-16 2x: 4.58E+00 2u: 1.38E-01 ir: 8.67E-17 iu: 2.43E-02 rsn: rtol

 Step     33 Time=  1.15686E+00 Dt=  5.26933E-02 [d] conv_reason: 3
  newton =   1 [      33] linear =     1 [        33] cuts =  0 [   0]
  --> SNES Linear/Non-Linear Iterations = 1 / 1
  --> SNES Residual: 0.215702E-15 0.215702E-15 0.867362E-16
  --> max change:  dcmx=   2.4297E-02  dc/dt=   5.3369E-06 [mol/s]
 Maximum Pore Velocity:   7.5911E+00 [m/d]
 CFL Limiting ( 1.0):   1.0539E-01 ->   5.2693E-02 [d]

== REACTIVE TRANSPORT ==========================================================
  0 2r: 3.02E-03 2x: 0.00E+00 2u: 0.00E+00 ir: 5.32E-04 iu: 0.00E+00 rsn:   0
  1 2r: 2.53E-16 2x: 4.67E+00 2u: 1.35E-01 ir: 9.19E-17 iu: 2.36E-02 rsn: rtol

 Step     34 Time=  1.20956E+00 Dt=  5.26933E-02 [d] conv_reason: 3
  newton =   1 [      34] linear =     1 [        34] cuts =  0 [   0]
  --> SNES Linear/Non-Linear Iterations = 1 / 1
  --> SNES Residual: 0.252779E-15 0.252779E-15 0.919403E-16
  --> max change:  dcmx=   2.3551E-02  dc/dt=   5.1730E-06 [mol/s]
 Maximum Pore Velocity:   7.5911E+00 [m/d]
 CFL Limiting ( 1.0):   1.0539E-01 ->   5.2693E-02 [d]

== REACTIVE TRANSPORT ==========================================================
  0 2r: 2.96E-03 2x: 0.00E+00 2u: 0.00E+00 ir: 5.16E-04 iu: 0.00E+00 rsn:   0
  1 2r: 2.45E-16 2x: 4.75E+00 2u: 1.33E-01 ir: 1.01E-16 iu: 2.29E-02 rsn: rtol

 Step     35 Time=  1.26225E+00 Dt=  5.26933E-02 [d] conv_reason: 3
  newton =   1 [      35] linear =     1 [        35] cuts =  0 [   0]
  --> SNES Linear/Non-Linear Iterations = 1 / 1
  --> SNES Residual: 0.244794E-15 0.244794E-15 0.100614E-15
  --> max change:  dcmx=   2.2861E-02  dc/dt=   5.0215E-06 [mol/s]
 Maximum Pore Velocity:   7.5911E+00 [m/d]
 CFL Limiting ( 1.0):   1.0539E-01 ->   5.2693E-02 [d]

== REACTIVE TRANSPORT ==========================================================
  0 2r: 2.91E-03 2x: 0.00E+00 2u: 0.00E+00 ir: 5.01E-04 iu: 0.00E+00 rsn:   0
  1 2r: 1.94E-16 2x: 4.84E+00 2u: 1.31E-01 ir: 6.25E-17 iu: 2.22E-02 rsn: rtol

 Step     36 Time=  1.31494E+00 Dt=  5.26933E-02 [d] conv_reason: 3
  newton =   1 [      36] linear =     1 [        36] cuts =  0 [   0]
  --> SNES Linear/Non-Linear Iterations = 1 / 1
  --> SNES Residual: 0.194482E-15 0.194482E-15 0.624500E-16
  --> max change:  dcmx=   2.2221E-02  dc/dt=   4.8809E-06 [mol/s]
 Maximum Pore Velocity:   7.5911E+00 [m/d]
 CFL Limiting ( 1.0):   1.0539E-01 ->   5.2693E-02 [d]

== REACTIVE TRANSPORT ==========================================================
  0 2r: 2.87E-03 2x: 0.00E+00 2u: 0.00E+00 ir: 4.87E-04 iu: 0.00E+00 rsn:   0
  1 2r: 3.31E-16 2x: 4.92E+00 2u: 1.23E-01 ir: 1.14E-16 iu: 2.07E-02 rsn: rtol

 Step     37 Time=  1.36529E+00 Dt=  5.03467E-02 [d] conv_reason: 3
  newton =   1 [      37] linear =     1 [        37] cuts =  0 [   0]
  --> SNES Linear/Non-Linear Iterations = 1 / 1
  --> SNES Residual: 0.330634E-15 0.330634E-15 0.114492E-15
  --> max change:  dcmx=   2.0688E-02  dc/dt=   4.7560E-06 [mol/s]
 Maximum Pore Velocity:   7.5911E+00 [m/d]
 CFL Limiting ( 1.0):   1.0069E-01 ->   5.2693E-02 [d]

== RICHARDS FLOW ===============================================================
  0 2r: 4.87E-16 2x: 0.00E+00 2u: 0.00E+00 ir: 1.48E-16 iu: 0.00E+00 rsn:   0
  1 2r: 4.87E-16 2x: 1.26E+06 2u: 6.12E-11 ir: 1.48E-16 iu: 1.44E-11 rsn: stol

 Step     16 Time=  2.36529E+00 Dt=  1.00000E+00 [d] conv_reason: 4
  newton =   1 [      18] linear =     1 [        18] cuts =  0 [   0]
  --> SNES Linear/Non-Linear Iterations = 1 / 1
  --> SNES Residual: 0.486615E-15 0.486615E-17 0.148319E-15
  --> max change: dpmx=   0.0000E+00

== REACTIVE TRANSPORT ==========================================================
  0 2r: 2.83E-03 2x: 0.00E+00 2u: 0.00E+00 ir: 4.74E-04 iu: 0.00E+00 rsn:   0
  1 2r: 2.54E-16 2x: 5.00E+00 2u: 1.27E-01 ir: 8.33E-17 iu: 2.11E-02 rsn: rtol

 Step     38 Time=  1.41798E+00 Dt=  5.26933E-02 [d] conv_reason: 3
  newton =   1 [      38] linear =     1 [        38] cuts =  0 [   0]
  --> SNES Linear/Non-Linear Iterations = 1 / 1
  --> SNES Residual: 0.253789E-15 0.253789E-15 0.832667E-16
  --> max change:  dcmx=   2.1099E-02  dc/dt=   4.6345E-06 [mol/s]
 Maximum Pore Velocity:   7.5911E+00 [m/d]
 CFL Limiting ( 1.0):   1.0539E-01 ->   5.2693E-02 [d]

== REACTIVE TRANSPORT ==========================================================
  0 2r: 2.78E-03 2x: 0.00E+00 2u: 0.00E+00 ir: 4.62E-04 iu: 0.00E+00 rsn:   0
  1 2r: 2.26E-16 2x: 5.08E+00 2u: 1.25E-01 ir: 8.33E-17 iu: 2.06E-02 rsn: rtol

 Step     39 Time=  1.47068E+00 Dt=  5.26933E-02 [d] conv_reason: 3
  newton =   1 [      39] linear =     1 [        39] cuts =  0 [   0]
  --> SNES Linear/Non-Linear Iterations = 1 / 1
  --> SNES Residual: 0.226323E-15 0.226323E-15 0.832667E-16
  --> max change:  dcmx=   2.0584E-02  dc/dt=   4.5213E-06 [mol/s]
 Maximum Pore Velocity:   7.5911E+00 [m/d]
 CFL Limiting ( 1.0):   1.0539E-01 ->   5.2693E-02 [d]

== REACTIVE TRANSPORT ==========================================================
  0 2r: 2.74E-03 2x: 0.00E+00 2u: 0.00E+00 ir: 4.51E-04 iu: 0.00E+00 rsn:   0
  1 2r: 3.32E-16 2x: 5.16E+00 2u: 1.24E-01 ir: 1.21E-16 iu: 2.01E-02 rsn: rtol

 Step     40 Time=  1.52337E+00 Dt=  5.26933E-02 [d] conv_reason: 3
  newton =   1 [      40] linear =     1 [        40] cuts =  0 [   0]
  --> SNES Linear/Non-Linear Iterations = 1 / 1
  --> SNES Residual: 0.331520E-15 0.331520E-15 0.121431E-15
  --> max change:  dcmx=   2.0101E-02  dc/dt=   4.4152E-06 [mol/s]
 Maximum Pore Velocity:   7.5911E+00 [m/d]
 CFL Limiting ( 1.0):   1.0539E-01 ->   5.2693E-02 [d]

== REACTIVE TRANSPORT ==========================================================
  0 2r: 2.71E-03 2x: 0.00E+00 2u: 0.00E+00 ir: 4.40E-04 iu: 0.00E+00 rsn:   0
  1 2r: 2.71E-16 2x: 5.24E+00 2u: 1.22E-01 ir: 7.98E-17 iu: 1.96E-02 rsn: rtol

 Step     41 Time=  1.57606E+00 Dt=  5.26933E-02 [d] conv_reason: 3
  newton =   1 [      41] linear =     1 [        41] cuts =  0 [   0]
  --> SNES Linear/Non-Linear Iterations = 1 / 1
  --> SNES Residual: 0.270700E-15 0.270700E-15 0.797973E-16
  --> max change:  dcmx=   1.9646E-02  dc/dt=   4.3153E-06 [mol/s]
 Maximum Pore Velocity:   7.5911E+00 [m/d]
 CFL Limiting ( 1.0):   1.0539E-01 ->   5.2693E-02 [d]

== REACTIVE TRANSPORT ==========================================================
  0 2r: 2.67E-03 2x: 0.00E+00 2u: 0.00E+00 ir: 4.30E-04 iu: 0.00E+00 rsn:   0
  1 2r: 1.95E-16 2x: 5.31E+00 2u: 1.21E-01 ir: 5.55E-17 iu: 1.92E-02 rsn: rtol

 Step     42 Time=  1.62876E+00 Dt=  5.26933E-02 [d] conv_reason: 3
  newton =   1 [      42] linear =     1 [        42] cuts =  0 [   0]
  --> SNES Linear/Non-Linear Iterations = 1 / 1
  --> SNES Residual: 0.195004E-15 0.195004E-15 0.555112E-16
  --> max change:  dcmx=   1.9218E-02  dc/dt=   4.2212E-06 [mol/s]
 Maximum Pore Velocity:   7.5911E+00 [m/d]
 CFL Limiting ( 1.0):   1.0539E-01 ->   5.2693E-02 [d]

== REACTIVE TRANSPORT ==========================================================
  0 2r: 2.64E-03 2x: 0.00E+00 2u: 0.00E+00 ir: 4.21E-04 iu: 0.00E+00 rsn:   0
  1 2r: 2.88E-16 2x: 5.39E+00 2u: 1.19E-01 ir: 9.02E-17 iu: 1.88E-02 rsn: rtol

 Step     43 Time=  1.68145E+00 Dt=  5.26933E-02 [d] conv_reason: 3
  newton =   1 [      43] linear =     1 [        43] cuts =  0 [   0]
  --> SNES Linear/Non-Linear Iterations = 1 / 1
  --> SNES Residual: 0.288356E-15 0.288356E-15 0.902056E-16
  --> max change:  dcmx=   1.8813E-02  dc/dt=   4.1324E-06 [mol/s]
 Maximum Pore Velocity:   7.5911E+00 [m/d]
 CFL Limiting ( 1.0):   1.0539E-01 ->   5.2693E-02 [d]

== REACTIVE TRANSPORT ==========================================================
  0 2r: 2.61E-03 2x: 0.00E+00 2u: 0.00E+00 ir: 4.12E-04 iu: 0.00E+00 rsn:   0
  1 2r: 2.51E-16 2x: 5.46E+00 2u: 1.18E-01 ir: 7.98E-17 iu: 1.84E-02 rsn: rtol

 Step     44 Time=  1.73414E+00 Dt=  5.26933E-02 [d] conv_reason: 3
  newton =   1 [      44] linear =     1 [        44] cuts =  0 [   0]
  --> SNES Linear/Non-Linear Iterations = 1 / 1
  --> SNES Residual: 0.250759E-15 0.250759E-15 0.797973E-16
  --> max change:  dcmx=   1.8431E-02  dc/dt=   4.0483E-06 [mol/s]
 Maximum Pore Velocity:   7.5911E+00 [m/d]
 CFL Limiting ( 1.0):   1.0539E-01 ->   5.2693E-02 [d]

== REACTIVE TRANSPORT ==========================================================
  0 2r: 2.58E-03 2x: 0.00E+00 2u: 0.00E+00 ir: 4.04E-04 iu: 0.00E+00 rsn:   0
  1 2r: 2.61E-16 2x: 5.54E+00 2u: 1.16E-01 ir: 8.67E-17 iu: 1.81E-02 rsn: rtol

 Step     45 Time=  1.78684E+00 Dt=  5.26933E-02 [d] conv_reason: 3
  newton =   1 [      45] linear =     1 [        45] cuts =  0 [   0]
  --> SNES Linear/Non-Linear Iterations = 1 / 1
  --> SNES Residual: 0.260512E-15 0.260512E-15 0.867362E-16
  --> max change:  dcmx=   1.8068E-02  dc/dt=   3.9687E-06 [mol/s]
 Maximum Pore Velocity:   7.5911E+00 [m/d]
 CFL Limiting ( 1.0):   1.0539E-01 ->   5.2693E-02 [d]

== REACTIVE TRANSPORT ==========================================================
  0 2r: 2.55E-03 2x: 0.00E+00 2u: 0.00E+00 ir: 3.96E-04 iu: 0.00E+00 rsn:   0
  1 2r: 2.40E-16 2x: 5.61E+00 2u: 1.15E-01 ir: 9.02E-17 iu: 1.77E-02 rsn: rtol

 Step     46 Time=  1.83953E+00 Dt=  5.26933E-02 [d] conv_reason: 3
  newton =   1 [      46] linear =     1 [        46] cuts =  0 [   0]
  --> SNES Linear/Non-Linear Iterations = 1 / 1
  --> SNES Residual: 0.240021E-15 0.240021E-15 0.902056E-16
  --> max change:  dcmx=   1.7725E-02  dc/dt=   3.8934E-06 [mol/s]
 Maximum Pore Velocity:   7.5911E+00 [m/d]
 CFL Limiting ( 1.0):   1.0539E-01 ->   5.2693E-02 [d]

== REACTIVE TRANSPORT ==========================================================
  0 2r: 2.52E-03 2x: 0.00E+00 2u: 0.00E+00 ir: 3.88E-04 iu: 0.00E+00 rsn:   0
  1 2r: 2.65E-16 2x: 5.68E+00 2u: 1.14E-01 ir: 7.29E-17 iu: 1.74E-02 rsn: rtol

 Step     47 Time=  1.89222E+00 Dt=  5.26933E-02 [d] conv_reason: 3
  newton =   1 [      47] linear =     1 [        47] cuts =  0 [   0]
  --> SNES Linear/Non-Linear Iterations = 1 / 1
  --> SNES Residual: 0.265444E-15 0.265444E-15 0.728584E-16
  --> max change:  dcmx=   1.7401E-02  dc/dt=   3.8222E-06 [mol/s]
 Maximum Pore Velocity:   7.5911E+00 [m/d]
 CFL Limiting ( 1.0):   1.0539E-01 ->   5.2693E-02 [d]

== REACTIVE TRANSPORT ==========================================================
  0 2r: 2.50E-03 2x: 0.00E+00 2u: 0.00E+00 ir: 3.81E-04 iu: 0.00E+00 rsn:   0
  1 2r: 2.87E-16 2x: 5.75E+00 2u: 1.13E-01 ir: 8.67E-17 iu: 1.71E-02 rsn: rtol

 Step     48 Time=  1.94492E+00 Dt=  5.26933E-02 [d] conv_reason: 3
  newton =   1 [      48] linear =     1 [        48] cuts =  0 [   0]
  --> SNES Linear/Non-Linear Iterations = 1 / 1
  --> SNES Residual: 0.287272E-15 0.287272E-15 0.867362E-16
  --> max change:  dcmx=   1.7093E-02  dc/dt=   3.7545E-06 [mol/s]
 Maximum Pore Velocity:   7.5911E+00 [m/d]
 CFL Limiting ( 1.0):   1.0539E-01 ->   5.2693E-02 [d]

== REACTIVE TRANSPORT ==========================================================
  0 2r: 2.47E-03 2x: 0.00E+00 2u: 0.00E+00 ir: 3.74E-04 iu: 0.00E+00 rsn:   0
  1 2r: 2.71E-16 2x: 5.83E+00 2u: 1.12E-01 ir: 8.33E-17 iu: 1.68E-02 rsn: rtol

 Step     49 Time=  1.99761E+00 Dt=  5.26933E-02 [d] conv_reason: 3
  newton =   1 [      49] linear =     1 [        49] cuts =  0 [   0]
  --> SNES Linear/Non-Linear Iterations = 1 / 1
  --> SNES Residual: 0.271121E-15 0.271121E-15 0.832667E-16
  --> max change:  dcmx=   1.6799E-02  dc/dt=   3.6899E-06 [mol/s]
 Maximum Pore Velocity:   7.5911E+00 [m/d]
 CFL Limiting ( 1.0):   1.0539E-01 ->   5.2693E-02 [d]

== REACTIVE TRANSPORT ==========================================================
  0 2r: 2.45E-03 2x: 0.00E+00 2u: 0.00E+00 ir: 3.68E-04 iu: 0.00E+00 rsn:   0
  1 2r: 2.71E-16 2x: 5.89E+00 2u: 1.11E-01 ir: 9.02E-17 iu: 1.65E-02 rsn: rtol

 Step     50 Time=  2.05030E+00 Dt=  5.26933E-02 [d] conv_reason: 3
  newton =   1 [      50] linear =     1 [        50] cuts =  0 [   0]
  --> SNES Linear/Non-Linear Iterations = 1 / 1
  --> SNES Residual: 0.270985E-15 0.270985E-15 0.902056E-16
  --> max change:  dcmx=   1.6518E-02  dc/dt=   3.6282E-06 [mol/s]
 Maximum Pore Velocity:   7.5911E+00 [m/d]
 CFL Limiting ( 1.0):   1.0539E-01 ->   5.2693E-02 [d]

== REACTIVE TRANSPORT ==========================================================
  0 2r: 2.43E-03 2x: 0.00E+00 2u: 0.00E+00 ir: 3.62E-04 iu: 0.00E+00 rsn:   0
  1 2r: 3.88E-16 2x: 5.96E+00 2u: 1.10E-01 ir: 1.67E-16 iu: 1.62E-02 rsn: rtol

 Step     51 Time=  2.10300E+00 Dt=  5.26933E-02 [d] conv_reason: 3
  newton =   1 [      51] linear =     1 [        51] cuts =  0 [   0]
  --> SNES Linear/Non-Linear Iterations = 1 / 1
  --> SNES Residual: 0.388384E-15 0.388384E-15 0.166533E-15
  --> max change:  dcmx=   1.6250E-02  dc/dt=   3.5693E-06 [mol/s]
 Maximum Pore Velocity:   7.5911E+00 [m/d]
 CFL Limiting ( 1.0):   1.0539E-01 ->   5.2693E-02 [d]

== REACTIVE TRANSPORT ==========================================================
  0 2r: 2.40E-03 2x: 0.00E+00 2u: 0.00E+00 ir: 3.56E-04 iu: 0.00E+00 rsn:   0
  1 2r: 3.05E-16 2x: 6.03E+00 2u: 1.09E-01 ir: 1.70E-16 iu: 1.60E-02 rsn: rtol

 Step     52 Time=  2.15569E+00 Dt=  5.26933E-02 [d] conv_reason: 3
  newton =   1 [      52] linear =     1 [        52] cuts =  0 [   0]
  --> SNES Linear/Non-Linear Iterations = 1 / 1
  --> SNES Residual: 0.304563E-15 0.304563E-15 0.170003E-15
  --> max change:  dcmx=   1.5993E-02  dc/dt=   3.5129E-06 [mol/s]
 Maximum Pore Velocity:   7.5911E+00 [m/d]
 CFL Limiting ( 1.0):   1.0539E-01 ->   5.2693E-02 [d]

== REACTIVE TRANSPORT ==========================================================
  0 2r: 2.38E-03 2x: 0.00E+00 2u: 0.00E+00 ir: 3.50E-04 iu: 0.00E+00 rsn:   0
  1 2r: 2.92E-16 2x: 6.10E+00 2u: 1.08E-01 ir: 1.04E-16 iu: 1.57E-02 rsn: rtol

 Step     53 Time=  2.20838E+00 Dt=  5.26933E-02 [d] conv_reason: 3
  newton =   1 [      53] linear =     1 [        53] cuts =  0 [   0]
  --> SNES Linear/Non-Linear Iterations = 1 / 1
  --> SNES Residual: 0.291730E-15 0.291730E-15 0.104083E-15
  --> max change:  dcmx=   1.5747E-02  dc/dt=   3.4589E-06 [mol/s]
 Maximum Pore Velocity:   7.5911E+00 [m/d]
 CFL Limiting ( 1.0):   1.0539E-01 ->   5.2693E-02 [d]

== REACTIVE TRANSPORT ==========================================================
  0 2r: 2.36E-03 2x: 0.00E+00 2u: 0.00E+00 ir: 3.45E-04 iu: 0.00E+00 rsn:   0
  1 2r: 3.12E-16 2x: 6.17E+00 2u: 1.07E-01 ir: 8.67E-17 iu: 1.55E-02 rsn: rtol

 Step     54 Time=  2.26108E+00 Dt=  5.26933E-02 [d] conv_reason: 3
  newton =   1 [      54] linear =     1 [        54] cuts =  0 [   0]
  --> SNES Linear/Non-Linear Iterations = 1 / 1
  --> SNES Residual: 0.312228E-15 0.312228E-15 0.867362E-16
  --> max change:  dcmx=   1.5512E-02  dc/dt=   3.4072E-06 [mol/s]
 Maximum Pore Velocity:   7.5911E+00 [m/d]
 CFL Limiting ( 1.0):   1.0539E-01 ->   5.2693E-02 [d]

== REACTIVE TRANSPORT ==========================================================
  0 2r: 2.34E-03 2x: 0.00E+00 2u: 0.00E+00 ir: 3.40E-04 iu: 0.00E+00 rsn:   0
  1 2r: 3.37E-16 2x: 6.23E+00 2u: 1.06E-01 ir: 1.11E-16 iu: 1.53E-02 rsn: rtol

 Step     55 Time=  2.31377E+00 Dt=  5.26933E-02 [d] conv_reason: 3
  newton =   1 [      55] linear =     1 [        55] cuts =  0 [   0]
  --> SNES Linear/Non-Linear Iterations = 1 / 1
  --> SNES Residual: 0.336730E-15 0.336730E-15 0.111022E-15
  --> max change:  dcmx=   1.5286E-02  dc/dt=   3.3576E-06 [mol/s]
 Maximum Pore Velocity:   7.5911E+00 [m/d]
 CFL Limiting ( 1.0):   1.0539E-01 ->   5.2693E-02 [d]

== REACTIVE TRANSPORT ==========================================================
  0 2r: 2.32E-03 2x: 0.00E+00 2u: 0.00E+00 ir: 3.35E-04 iu: 0.00E+00 rsn:   0
  1 2r: 3.43E-16 2x: 6.30E+00 2u: 1.03E-01 ir: 1.04E-16 iu: 1.47E-02 rsn: rtol

 Step     56 Time=  2.36529E+00 Dt=  5.15201E-02 [d] conv_reason: 3
  newton =   1 [      56] linear =     1 [        56] cuts =  0 [   0]
  --> SNES Linear/Non-Linear Iterations = 1 / 1
  --> SNES Residual: 0.342520E-15 0.342520E-15 0.104083E-15
  --> max change:  dcmx=   1.4739E-02  dc/dt=   3.3111E-06 [mol/s]
 Maximum Pore Velocity:   7.5911E+00 [m/d]
 CFL Limiting ( 1.0):   1.0304E-01 ->   5.2693E-02 [d]

== RICHARDS FLOW ===============================================================
  0 2r: 4.87E-16 2x: 0.00E+00 2u: 0.00E+00 ir: 1.48E-16 iu: 0.00E+00 rsn:   0
  1 2r: 4.87E-16 2x: 1.26E+06 2u: 6.12E-11 ir: 1.48E-16 iu: 1.44E-11 rsn: stol

 Step     17 Time=  3.36529E+00 Dt=  1.00000E+00 [d] conv_reason: 4
  newton =   1 [      19] linear =     1 [        19] cuts =  0 [   0]
  --> SNES Linear/Non-Linear Iterations = 1 / 1
  --> SNES Residual: 0.486615E-15 0.486615E-17 0.148319E-15
  --> max change: dpmx=   0.0000E+00

== REACTIVE TRANSPORT ==========================================================
  0 2r: 2.30E-03 2x: 0.00E+00 2u: 0.00E+00 ir: 3.30E-04 iu: 0.00E+00 rsn:   0
  1 2r: 3.89E-16 2x: 6.36E+00 2u: 1.04E-01 ir: 1.28E-16 iu: 1.49E-02 rsn: rtol

 Step     57 Time=  2.41798E+00 Dt=  5.26933E-02 [d] conv_reason: 3
  newton =   1 [      57] linear =     1 [        57] cuts =  0 [   0]
  --> SNES Linear/Non-Linear Iterations = 1 / 1
  --> SNES Residual: 0.388646E-15 0.388646E-15 0.128370E-15
  --> max change:  dcmx=   1.4866E-02  dc/dt=   3.2654E-06 [mol/s]
 Maximum Pore Velocity:   7.5911E+00 [m/d]
 CFL Limiting ( 1.0):   1.0539E-01 ->   5.2693E-02 [d]

== REACTIVE TRANSPORT ==========================================================
  0 2r: 2.28E-03 2x: 0.00E+00 2u: 0.00E+00 ir: 3.26E-04 iu: 0.00E+00 rsn:   0
  1 2r: 3.09E-16 2x: 6.43E+00 2u: 1.03E-01 ir: 1.11E-16 iu: 1.47E-02 rsn: rtol

 Step     58 Time=  2.47068E+00 Dt=  5.26933E-02 [d] conv_reason: 3
  newton =   1 [      58] linear =     1 [        58] cuts =  0 [   0]
  --> SNES Linear/Non-Linear Iterations = 1 / 1
  --> SNES Residual: 0.308968E-15 0.308968E-15 0.111022E-15
  --> max change:  dcmx=   1.4668E-02  dc/dt=   3.2218E-06 [mol/s]
 Maximum Pore Velocity:   7.5911E+00 [m/d]
 CFL Limiting ( 1.0):   1.0539E-01 ->   5.2693E-02 [d]

== REACTIVE TRANSPORT ==========================================================
  0 2r: 2.26E-03 2x: 0.00E+00 2u: 0.00E+00 ir: 3.21E-04 iu: 0.00E+00 rsn:   0
  1 2r: 2.70E-16 2x: 6.49E+00 2u: 1.02E-01 ir: 7.98E-17 iu: 1.45E-02 rsn: rtol

 Step     59 Time=  2.52337E+00 Dt=  5.26933E-02 [d] conv_reason: 3
  newton =   1 [      59] linear =     1 [        59] cuts =  0 [   0]
  --> SNES Linear/Non-Linear Iterations = 1 / 1
  --> SNES Residual: 0.269700E-15 0.269700E-15 0.797973E-16
  --> max change:  dcmx=   1.4477E-02  dc/dt=   3.1800E-06 [mol/s]
 Maximum Pore Velocity:   7.5911E+00 [m/d]
 CFL Limiting ( 1.0):   1.0539E-01 ->   5.2693E-02 [d]

== REACTIVE TRANSPORT ==========================================================
  0 2r: 2.24E-03 2x: 0.00E+00 2u: 0.00E+00 ir: 3.17E-04 iu: 0.00E+00 rsn:   0
  1 2r: 2.91E-16 2x: 6.55E+00 2u: 1.01E-01 ir: 1.21E-16 iu: 1.43E-02 rsn: rtol

 Step     60 Time=  2.57606E+00 Dt=  5.26933E-02 [d] conv_reason: 3
  newton =   1 [      60] linear =     1 [        60] cuts =  0 [   0]
  --> SNES Linear/Non-Linear Iterations = 1 / 1
  --> SNES Residual: 0.291045E-15 0.291045E-15 0.121431E-15
  --> max change:  dcmx=   1.4294E-02  dc/dt=   3.1397E-06 [mol/s]
 Maximum Pore Velocity:   7.5911E+00 [m/d]
 CFL Limiting ( 1.0):   1.0539E-01 ->   5.2693E-02 [d]

== REACTIVE TRANSPORT ==========================================================
  0 2r: 2.22E-03 2x: 0.00E+00 2u: 0.00E+00 ir: 3.13E-04 iu: 0.00E+00 rsn:   0
  1 2r: 3.13E-16 2x: 6.62E+00 2u: 1.00E-01 ir: 9.02E-17 iu: 1.41E-02 rsn: rtol

 Step     61 Time=  2.62876E+00 Dt=  5.26933E-02 [d] conv_reason: 3
  newton =   1 [      61] linear =     1 [        61] cuts =  0 [   0]
  --> SNES Linear/Non-Linear Iterations = 1 / 1
  --> SNES Residual: 0.313271E-15 0.313271E-15 0.902056E-16
  --> max change:  dcmx=   1.4118E-02  dc/dt=   3.1011E-06 [mol/s]
 Maximum Pore Velocity:   7.5911E+00 [m/d]
 CFL Limiting ( 1.0):   1.0539E-01 ->   5.2693E-02 [d]

== REACTIVE TRANSPORT ==========================================================
  0 2r: 2.20E-03 2x: 0.00E+00 2u: 0.00E+00 ir: 3.09E-04 iu: 0.00E+00 rsn:   0
  1 2r: 3.13E-16 2x: 6.68E+00 2u: 9.94E-02 ir: 1.21E-16 iu: 1.39E-02 rsn: rtol

 Step     62 Time=  2.68145E+00 Dt=  5.26933E-02 [d] conv_reason: 3
  newton =   1 [      62] linear =     1 [        62] cuts =  0 [   0]
  --> SNES Linear/Non-Linear Iterations = 1 / 1
  --> SNES Residual: 0.312512E-15 0.312512E-15 0.121431E-15
  --> max change:  dcmx=   1.3949E-02  dc/dt=   3.0640E-06 [mol/s]
 Maximum Pore Velocity:   7.5911E+00 [m/d]
 CFL Limiting ( 1.0):   1.0539E-01 ->   5.2693E-02 [d]

== REACTIVE TRANSPORT ==========================================================
  0 2r: 2.18E-03 2x: 0.00E+00 2u: 0.00E+00 ir: 3.06E-04 iu: 0.00E+00 rsn:   0
  1 2r: 3.05E-16 2x: 6.74E+00 2u: 9.84E-02 ir: 1.04E-16 iu: 1.38E-02 rsn: rtol

 Step     63 Time=  2.73414E+00 Dt=  5.26933E-02 [d] conv_reason: 3
  newton =   1 [      63] linear =     1 [        63] cuts =  0 [   0]
  --> SNES Linear/Non-Linear Iterations = 1 / 1
  --> SNES Residual: 0.305084E-15 0.305084E-15 0.104083E-15
  --> max change:  dcmx=   1.3787E-02  dc/dt=   3.0284E-06 [mol/s]
 Maximum Pore Velocity:   7.5911E+00 [m/d]
 CFL Limiting ( 1.0):   1.0539E-01 ->   5.2693E-02 [d]

== REACTIVE TRANSPORT ==========================================================
  0 2r: 2.16E-03 2x: 0.00E+00 2u: 0.00E+00 ir: 3.02E-04 iu: 0.00E+00 rsn:   0
  1 2r: 3.66E-16 2x: 6.80E+00 2u: 9.75E-02 ir: 9.37E-17 iu: 1.36E-02 rsn: rtol

 Step     64 Time=  2.78684E+00 Dt=  5.26933E-02 [d] conv_reason: 3
  newton =   1 [      64] linear =     1 [        64] cuts =  0 [   0]
  --> SNES Linear/Non-Linear Iterations = 1 / 1
  --> SNES Residual: 0.365653E-15 0.365653E-15 0.936751E-16
  --> max change:  dcmx=   1.3632E-02  dc/dt=   2.9942E-06 [mol/s]
 Maximum Pore Velocity:   7.5911E+00 [m/d]
 CFL Limiting ( 1.0):   1.0539E-01 ->   5.2693E-02 [d]

== REACTIVE TRANSPORT ==========================================================
  0 2r: 2.14E-03 2x: 0.00E+00 2u: 0.00E+00 ir: 2.99E-04 iu: 0.00E+00 rsn:   0
  1 2r: 2.93E-16 2x: 6.86E+00 2u: 9.65E-02 ir: 7.98E-17 iu: 1.35E-02 rsn: rtol

 Step     65 Time=  2.83953E+00 Dt=  5.26933E-02 [d] conv_reason: 3
  newton =   1 [      65] linear =     1 [        65] cuts =  0 [   0]
  --> SNES Linear/Non-Linear Iterations = 1 / 1
  --> SNES Residual: 0.293030E-15 0.293030E-15 0.797973E-16
  --> max change:  dcmx=   1.3483E-02  dc/dt=   2.9614E-06 [mol/s]
 Maximum Pore Velocity:   7.5911E+00 [m/d]
 CFL Limiting ( 1.0):   1.0539E-01 ->   5.2693E-02 [d]

== REACTIVE TRANSPORT ==========================================================
  0 2r: 2.11E-03 2x: 0.00E+00 2u: 0.00E+00 ir: 2.95E-04 iu: 0.00E+00 rsn:   0
  1 2r: 3.41E-16 2x: 6.92E+00 2u: 9.55E-02 ir: 9.71E-17 iu: 1.33E-02 rsn: rtol

 Step     66 Time=  2.89222E+00 Dt=  5.26933E-02 [d] conv_reason: 3
  newton =   1 [      66] linear =     1 [        66] cuts =  0 [   0]
  --> SNES Linear/Non-Linear Iterations = 1 / 1
  --> SNES Residual: 0.340596E-15 0.340596E-15 0.971445E-16
  --> max change:  dcmx=   1.3341E-02  dc/dt=   2.9304E-06 [mol/s]
 Maximum Pore Velocity:   7.5911E+00 [m/d]
 CFL Limiting ( 1.0):   1.0539E-01 ->   5.2693E-02 [d]

== REACTIVE TRANSPORT ==========================================================
  0 2r: 2.09E-03 2x: 0.00E+00 2u: 0.00E+00 ir: 2.92E-04 iu: 0.00E+00 rsn:   0
  1 2r: 3.89E-16 2x: 6.98E+00 2u: 9.45E-02 ir: 1.11E-16 iu: 1.32E-02 rsn: rtol

 Step     67 Time=  2.94492E+00 Dt=  5.26933E-02 [d] conv_reason: 3
  newton =   1 [      67] linear =     1 [        67] cuts =  0 [   0]
  --> SNES Linear/Non-Linear Iterations = 1 / 1
  --> SNES Residual: 0.388750E-15 0.388750E-15 0.111022E-15
  --> max change:  dcmx=   1.3207E-02  dc/dt=   2.9010E-06 [mol/s]
 Maximum Pore Velocity:   7.5911E+00 [m/d]
 CFL Limiting ( 1.0):   1.0539E-01 ->   5.2693E-02 [d]

== REACTIVE TRANSPORT ==========================================================
  0 2r: 2.07E-03 2x: 0.00E+00 2u: 0.00E+00 ir: 2.89E-04 iu: 0.00E+00 rsn:   0
  1 2r: 3.55E-16 2x: 7.04E+00 2u: 9.35E-02 ir: 1.01E-16 iu: 1.31E-02 rsn: rtol

 Step     68 Time=  2.99761E+00 Dt=  5.26933E-02 [d] conv_reason: 3
  newton =   1 [      68] linear =     1 [        68] cuts =  0 [   0]
  --> SNES Linear/Non-Linear Iterations = 1 / 1
  --> SNES Residual: 0.355211E-15 0.355211E-15 0.100614E-15
  --> max change:  dcmx=   1.3079E-02  dc/dt=   2.8729E-06 [mol/s]
 Maximum Pore Velocity:   7.5911E+00 [m/d]
 CFL Limiting ( 1.0):   1.0539E-01 ->   5.2693E-02 [d]

== REACTIVE TRANSPORT ==========================================================
  0 2r: 2.05E-03 2x: 0.00E+00 2u: 0.00E+00 ir: 2.86E-04 iu: 0.00E+00 rsn:   0
  1 2r: 3.89E-16 2x: 7.10E+00 2u: 9.24E-02 ir: 1.11E-16 iu: 1.30E-02 rsn: rtol

 Step     69 Time=  3.05030E+00 Dt=  5.26933E-02 [d] conv_reason: 3
  newton =   1 [      69] linear =     1 [        69] cuts =  0 [   0]
  --> SNES Linear/Non-Linear Iterations = 1 / 1
  --> SNES Residual: 0.388840E-15 0.388840E-15 0.111022E-15
  --> max change:  dcmx=   1.2958E-02  dc/dt=   2.8461E-06 [mol/s]
 Maximum Pore Velocity:   7.5911E+00 [m/d]
 CFL Limiting ( 1.0):   1.0539E-01 ->   5.2693E-02 [d]

== REACTIVE TRANSPORT ==========================================================
  0 2r: 2.02E-03 2x: 0.00E+00 2u: 0.00E+00 ir: 2.84E-04 iu: 0.00E+00 rsn:   0
  1 2r: 3.06E-16 2x: 7.15E+00 2u: 9.14E-02 ir: 8.33E-17 iu: 1.28E-02 rsn: rtol

 Step     70 Time=  3.10300E+00 Dt=  5.26933E-02 [d] conv_reason: 3
  newton =   1 [      70] linear =     1 [        70] cuts =  0 [   0]
  --> SNES Linear/Non-Linear Iterations = 1 / 1
  --> SNES Residual: 0.305517E-15 0.305517E-15 0.832667E-16
  --> max change:  dcmx=   1.2844E-02  dc/dt=   2.8211E-06 [mol/s]
 Maximum Pore Velocity:   7.5911E+00 [m/d]
 CFL Limiting ( 1.0):   1.0539E-01 ->   5.2693E-02 [d]

== REACTIVE TRANSPORT ==========================================================
  0 2r: 2.00E-03 2x: 0.00E+00 2u: 0.00E+00 ir: 2.81E-04 iu: 0.00E+00 rsn:   0
  1 2r: 3.51E-16 2x: 7.21E+00 2u: 9.03E-02 ir: 9.71E-17 iu: 1.27E-02 rsn: rtol

 Step     71 Time=  3.15569E+00 Dt=  5.26933E-02 [d] conv_reason: 3
  newton =   1 [      71] linear =     1 [        71] cuts =  0 [   0]
  --> SNES Linear/Non-Linear Iterations = 1 / 1
  --> SNES Residual: 0.351286E-15 0.351286E-15 0.971445E-16
  --> max change:  dcmx=   1.2737E-02  dc/dt=   2.7978E-06 [mol/s]
 Maximum Pore Velocity:   7.5911E+00 [m/d]
 CFL Limiting ( 1.0):   1.0539E-01 ->   5.2693E-02 [d]

== REACTIVE TRANSPORT ==========================================================
  0 2r: 1.98E-03 2x: 0.00E+00 2u: 0.00E+00 ir: 2.79E-04 iu: 0.00E+00 rsn:   0
  1 2r: 3.86E-16 2x: 7.27E+00 2u: 8.92E-02 ir: 1.08E-16 iu: 1.26E-02 rsn: rtol

 Step     72 Time=  3.20838E+00 Dt=  5.26933E-02 [d] conv_reason: 3
  newton =   1 [      72] linear =     1 [        72] cuts =  0 [   0]
  --> SNES Linear/Non-Linear Iterations = 1 / 1
  --> SNES Residual: 0.386214E-15 0.386214E-15 0.107553E-15
  --> max change:  dcmx=   1.2637E-02  dc/dt=   2.7758E-06 [mol/s]
 Maximum Pore Velocity:   7.5911E+00 [m/d]
 CFL Limiting ( 1.0):   1.0539E-01 ->   5.2693E-02 [d]

== REACTIVE TRANSPORT ==========================================================
  0 2r: 1.95E-03 2x: 0.00E+00 2u: 0.00E+00 ir: 2.77E-04 iu: 0.00E+00 rsn:   0
  1 2r: 3.45E-16 2x: 7.32E+00 2u: 8.81E-02 ir: 1.01E-16 iu: 1.25E-02 rsn: rtol

 Step     73 Time=  3.26108E+00 Dt=  5.26933E-02 [d] conv_reason: 3
  newton =   1 [      73] linear =     1 [        73] cuts =  0 [   0]
  --> SNES Linear/Non-Linear Iterations = 1 / 1
  --> SNES Residual: 0.345372E-15 0.345372E-15 0.100614E-15
  --> max change:  dcmx=   1.2547E-02  dc/dt=   2.7559E-06 [mol/s]
 Maximum Pore Velocity:   7.5911E+00 [m/d]
 CFL Limiting ( 1.0):   1.0539E-01 ->   5.2693E-02 [d]

== REACTIVE TRANSPORT ==========================================================
  0 2r: 1.93E-03 2x: 0.00E+00 2u: 0.00E+00 ir: 2.75E-04 iu: 0.00E+00 rsn:   0
  1 2r: 3.23E-16 2x: 7.38E+00 2u: 8.70E-02 ir: 9.02E-17 iu: 1.25E-02 rsn: rtol

 Step     74 Time=  3.31377E+00 Dt=  5.26933E-02 [d] conv_reason: 3
  newton =   1 [      74] linear =     1 [        74] cuts =  0 [   0]
  --> SNES Linear/Non-Linear Iterations = 1 / 1
  --> SNES Residual: 0.323123E-15 0.323123E-15 0.902056E-16
  --> max change:  dcmx=   1.2463E-02  dc/dt=   2.7375E-06 [mol/s]
 Maximum Pore Velocity:   7.5911E+00 [m/d]
 CFL Limiting ( 1.0):   1.0539E-01 ->   5.2693E-02 [d]

== REACTIVE TRANSPORT ==========================================================
  0 2r: 1.91E-03 2x: 0.00E+00 2u: 0.00E+00 ir: 2.73E-04 iu: 0.00E+00 rsn:   0
  1 2r: 3.42E-16 2x: 7.43E+00 2u: 8.40E-02 ir: 1.18E-16 iu: 1.21E-02 rsn: rtol

 Step     75 Time=  3.36529E+00 Dt=  5.15201E-02 [d] conv_reason: 3
  newton =   1 [      75] linear =     1 [        75] cuts =  0 [   0]
  --> SNES Linear/Non-Linear Iterations = 1 / 1
  --> SNES Residual: 0.342207E-15 0.342207E-15 0.117961E-15
  --> max change:  dcmx=   1.2115E-02  dc/dt=   2.7217E-06 [mol/s]
 Maximum Pore Velocity:   7.5911E+00 [m/d]
 CFL Limiting ( 1.0):   1.0304E-01 ->   5.2693E-02 [d]

== RICHARDS FLOW ===============================================================
  0 2r: 4.87E-16 2x: 0.00E+00 2u: 0.00E+00 ir: 1.48E-16 iu: 0.00E+00 rsn:   0
  1 2r: 4.87E-16 2x: 1.26E+06 2u: 6.12E-11 ir: 1.48E-16 iu: 1.44E-11 rsn: stol

 Step     18 Time=  4.36529E+00 Dt=  1.00000E+00 [d] conv_reason: 4
  newton =   1 [      20] linear =     1 [        20] cuts =  0 [   0]
  --> SNES Linear/Non-Linear Iterations = 1 / 1
  --> SNES Residual: 0.486615E-15 0.486615E-17 0.148319E-15
  --> max change: dpmx=   0.0000E+00

== REACTIVE TRANSPORT ==========================================================
  0 2r: 1.88E-03 2x: 0.00E+00 2u: 0.00E+00 ir: 2.71E-04 iu: 0.00E+00 rsn:   0
  1 2r: 3.89E-16 2x: 7.48E+00 2u: 8.47E-02 ir: 9.02E-17 iu: 1.23E-02 rsn: rtol

 Step     76 Time=  3.41798E+00 Dt=  5.26933E-02 [d] conv_reason: 3
  newton =   1 [      76] linear =     1 [        76] cuts =  0 [   0]
  --> SNES Linear/Non-Linear Iterations = 1 / 1
  --> SNES Residual: 0.389302E-15 0.389302E-15 0.902056E-16
  --> max change:  dcmx=   1.2326E-02  dc/dt=   2.7074E-06 [mol/s]
 Maximum Pore Velocity:   7.5911E+00 [m/d]
 CFL Limiting ( 1.0):   1.0539E-01 ->   5.2693E-02 [d]

== REACTIVE TRANSPORT ==========================================================
  0 2r: 1.86E-03 2x: 0.00E+00 2u: 0.00E+00 ir: 2.70E-04 iu: 0.00E+00 rsn:   0
  1 2r: 3.67E-16 2x: 7.54E+00 2u: 8.36E-02 ir: 1.11E-16 iu: 1.23E-02 rsn: rtol

 Step     77 Time=  3.47068E+00 Dt=  5.26933E-02 [d] conv_reason: 3
  newton =   1 [      77] linear =     1 [        77] cuts =  0 [   0]
  --> SNES Linear/Non-Linear Iterations = 1 / 1
  --> SNES Residual: 0.367345E-15 0.367345E-15 0.111022E-15
  --> max change:  dcmx=   1.2272E-02  dc/dt=   2.6955E-06 [mol/s]
 Maximum Pore Velocity:   7.5911E+00 [m/d]
 CFL Limiting ( 1.0):   1.0539E-01 ->   5.2693E-02 [d]

== REACTIVE TRANSPORT ==========================================================
  0 2r: 1.83E-03 2x: 0.00E+00 2u: 0.00E+00 ir: 2.69E-04 iu: 0.00E+00 rsn:   0
  1 2r: 3.46E-16 2x: 7.59E+00 2u: 8.24E-02 ir: 9.71E-17 iu: 1.22E-02 rsn: rtol

 Step     78 Time=  3.52337E+00 Dt=  5.26933E-02 [d] conv_reason: 3
  newton =   1 [      78] linear =     1 [        78] cuts =  0 [   0]
  --> SNES Linear/Non-Linear Iterations = 1 / 1
  --> SNES Residual: 0.345889E-15 0.345889E-15 0.971445E-16
  --> max change:  dcmx=   1.2230E-02  dc/dt=   2.6862E-06 [mol/s]
 Maximum Pore Velocity:   7.5911E+00 [m/d]
 CFL Limiting ( 1.0):   1.0539E-01 ->   5.2693E-02 [d]

== REACTIVE TRANSPORT ==========================================================
  0 2r: 1.80E-03 2x: 0.00E+00 2u: 0.00E+00 ir: 2.68E-04 iu: 0.00E+00 rsn:   0
  1 2r: 3.12E-16 2x: 7.64E+00 2u: 8.12E-02 ir: 7.98E-17 iu: 1.22E-02 rsn: rtol

 Step     79 Time=  3.57606E+00 Dt=  5.26933E-02 [d] conv_reason: 3
  newton =   1 [      79] linear =     1 [        79] cuts =  0 [   0]
  --> SNES Linear/Non-Linear Iterations = 1 / 1
  --> SNES Residual: 0.312443E-15 0.312443E-15 0.797973E-16
  --> max change:  dcmx=   1.2201E-02  dc/dt=   2.6799E-06 [mol/s]
 Maximum Pore Velocity:   7.5911E+00 [m/d]
 CFL Limiting ( 1.0):   1.0539E-01 ->   5.2693E-02 [d]

== REACTIVE TRANSPORT ==========================================================
  0 2r: 1.78E-03 2x: 0.00E+00 2u: 0.00E+00 ir: 2.67E-04 iu: 0.00E+00 rsn:   0
  1 2r: 3.32E-16 2x: 7.69E+00 2u: 8.00E-02 ir: 1.04E-16 iu: 1.22E-02 rsn: rtol

 Step     80 Time=  3.62876E+00 Dt=  5.26933E-02 [d] conv_reason: 3
  newton =   1 [      80] linear =     1 [        80] cuts =  0 [   0]
  --> SNES Linear/Non-Linear Iterations = 1 / 1
  --> SNES Residual: 0.331694E-15 0.331694E-15 0.104083E-15
  --> max change:  dcmx=   1.2188E-02  dc/dt=   2.6771E-06 [mol/s]
 Maximum Pore Velocity:   7.5911E+00 [m/d]
 CFL Limiting ( 1.0):   1.0539E-01 ->   5.2693E-02 [d]

== REACTIVE TRANSPORT ==========================================================
  0 2r: 1.75E-03 2x: 0.00E+00 2u: 0.00E+00 ir: 2.67E-04 iu: 0.00E+00 rsn:   0
  1 2r: 3.42E-16 2x: 7.74E+00 2u: 7.88E-02 ir: 8.33E-17 iu: 1.22E-02 rsn: rtol

 Step     81 Time=  3.68145E+00 Dt=  5.26933E-02 [d] conv_reason: 3
  newton =   1 [      81] linear =     1 [        81] cuts =  0 [   0]
  --> SNES Linear/Non-Linear Iterations = 1 / 1
  --> SNES Residual: 0.341547E-15 0.341547E-15 0.832667E-16
  --> max change:  dcmx=   1.2171E-02  dc/dt=   2.6733E-06 [mol/s]
 Maximum Pore Velocity:   7.5911E+00 [m/d]
 CFL Limiting ( 1.0):   1.0539E-01 ->   5.2693E-02 [d]

== REACTIVE TRANSPORT ==========================================================
  0 2r: 1.73E-03 2x: 0.00E+00 2u: 0.00E+00 ir: 2.67E-04 iu: 0.00E+00 rsn:   0
  1 2r: 2.80E-16 2x: 7.79E+00 2u: 7.76E-02 ir: 7.98E-17 iu: 1.21E-02 rsn: rtol

 Step     82 Time=  3.73414E+00 Dt=  5.26933E-02 [d] conv_reason: 3
  newton =   1 [      82] linear =     1 [        82] cuts =  0 [   0]
  --> SNES Linear/Non-Linear Iterations = 1 / 1
  --> SNES Residual: 0.280361E-15 0.280361E-15 0.797973E-16
  --> max change:  dcmx=   1.2141E-02  dc/dt=   2.6668E-06 [mol/s]
 Maximum Pore Velocity:   7.5911E+00 [m/d]
 CFL Limiting ( 1.0):   1.0539E-01 ->   5.2693E-02 [d]

== REACTIVE TRANSPORT ==========================================================
  0 2r: 1.70E-03 2x: 0.00E+00 2u: 0.00E+00 ir: 2.66E-04 iu: 0.00E+00 rsn:   0
  1 2r: 3.91E-16 2x: 7.84E+00 2u: 7.63E-02 ir: 1.04E-16 iu: 1.21E-02 rsn: rtol

 Step     83 Time=  3.78684E+00 Dt=  5.26933E-02 [d] conv_reason: 3
  newton =   1 [      83] linear =     1 [        83] cuts =  0 [   0]
  --> SNES Linear/Non-Linear Iterations = 1 / 1
  --> SNES Residual: 0.391014E-15 0.391014E-15 0.104083E-15
  --> max change:  dcmx=   1.2099E-02  dc/dt=   2.6576E-06 [mol/s]
 Maximum Pore Velocity:   7.5911E+00 [m/d]
 CFL Limiting ( 1.0):   1.0539E-01 ->   5.2693E-02 [d]

== REACTIVE TRANSPORT ==========================================================
  0 2r: 1.67E-03 2x: 0.00E+00 2u: 0.00E+00 ir: 2.65E-04 iu: 0.00E+00 rsn:   0
  1 2r: 4.29E-16 2x: 7.89E+00 2u: 7.51E-02 ir: 1.25E-16 iu: 1.20E-02 rsn: rtol

 Step     84 Time=  3.83953E+00 Dt=  5.26933E-02 [d] conv_reason: 3
  newton =   1 [      84] linear =     1 [        84] cuts =  0 [   0]
  --> SNES Linear/Non-Linear Iterations = 1 / 1
  --> SNES Residual: 0.429291E-15 0.429291E-15 0.124900E-15
  --> max change:  dcmx=   1.2047E-02  dc/dt=   2.6460E-06 [mol/s]
 Maximum Pore Velocity:   7.5911E+00 [m/d]
 CFL Limiting ( 1.0):   1.0539E-01 ->   5.2693E-02 [d]

== REACTIVE TRANSPORT ==========================================================
  0 2r: 1.65E-03 2x: 0.00E+00 2u: 0.00E+00 ir: 2.64E-04 iu: 0.00E+00 rsn:   0
  1 2r: 3.46E-16 2x: 7.93E+00 2u: 7.39E-02 ir: 1.21E-16 iu: 1.20E-02 rsn: rtol

 Step     85 Time=  3.89222E+00 Dt=  5.26933E-02 [d] conv_reason: 3
  newton =   1 [      85] linear =     1 [        85] cuts =  0 [   0]
  --> SNES Linear/Non-Linear Iterations = 1 / 1
  --> SNES Residual: 0.346281E-15 0.346281E-15 0.121431E-15
  --> max change:  dcmx=   1.1983E-02  dc/dt=   2.6321E-06 [mol/s]
 Maximum Pore Velocity:   7.5911E+00 [m/d]
 CFL Limiting ( 1.0):   1.0539E-01 ->   5.2693E-02 [d]

== REACTIVE TRANSPORT ==========================================================
  0 2r: 1.62E-03 2x: 0.00E+00 2u: 0.00E+00 ir: 2.62E-04 iu: 0.00E+00 rsn:   0
  1 2r: 4.18E-16 2x: 7.98E+00 2u: 7.26E-02 ir: 1.06E-16 iu: 1.19E-02 rsn: rtol

 Step     86 Time=  3.94492E+00 Dt=  5.26933E-02 [d] conv_reason: 3
  newton =   1 [      86] linear =     1 [        86] cuts =  0 [   0]
  --> SNES Linear/Non-Linear Iterations = 1 / 1
  --> SNES Residual: 0.417730E-15 0.417730E-15 0.105818E-15
  --> max change:  dcmx=   1.1910E-02  dc/dt=   2.6160E-06 [mol/s]
 Maximum Pore Velocity:   7.5911E+00 [m/d]
 CFL Limiting ( 1.0):   1.0539E-01 ->   5.2693E-02 [d]

== REACTIVE TRANSPORT ==========================================================
  0 2r: 1.59E-03 2x: 0.00E+00 2u: 0.00E+00 ir: 2.61E-04 iu: 0.00E+00 rsn:   0
  1 2r: 4.23E-16 2x: 8.03E+00 2u: 7.14E-02 ir: 1.28E-16 iu: 1.18E-02 rsn: rtol

 Step     87 Time=  3.99761E+00 Dt=  5.26933E-02 [d] conv_reason: 3
  newton =   1 [      87] linear =     1 [        87] cuts =  0 [   0]
  --> SNES Linear/Non-Linear Iterations = 1 / 1
  --> SNES Residual: 0.423088E-15 0.423088E-15 0.128370E-15
  --> max change:  dcmx=   1.1827E-02  dc/dt=   2.5978E-06 [mol/s]
 Maximum Pore Velocity:   7.5911E+00 [m/d]
 CFL Limiting ( 1.0):   1.0539E-01 ->   5.2693E-02 [d]

== REACTIVE TRANSPORT ==========================================================
  0 2r: 1.56E-03 2x: 0.00E+00 2u: 0.00E+00 ir: 2.59E-04 iu: 0.00E+00 rsn:   0
  1 2r: 4.25E-16 2x: 8.07E+00 2u: 7.02E-02 ir: 1.14E-16 iu: 1.17E-02 rsn: rtol

 Step     88 Time=  4.05030E+00 Dt=  5.26933E-02 [d] conv_reason: 3
  newton =   1 [      88] linear =     1 [        88] cuts =  0 [   0]
  --> SNES Linear/Non-Linear Iterations = 1 / 1
  --> SNES Residual: 0.425142E-15 0.425142E-15 0.114492E-15
  --> max change:  dcmx=   1.1735E-02  dc/dt=   2.5777E-06 [mol/s]
 Maximum Pore Velocity:   7.5911E+00 [m/d]
 CFL Limiting ( 1.0):   1.0539E-01 ->   5.2693E-02 [d]

== REACTIVE TRANSPORT ==========================================================
  0 2r: 1.54E-03 2x: 0.00E+00 2u: 0.00E+00 ir: 2.57E-04 iu: 0.00E+00 rsn:   0
  1 2r: 3.86E-16 2x: 8.12E+00 2u: 6.89E-02 ir: 9.37E-17 iu: 1.16E-02 rsn: rtol

 Step     89 Time=  4.10300E+00 Dt=  5.26933E-02 [d] conv_reason: 3
  newton =   1 [      89] linear =     1 [        89] cuts =  0 [   0]
  --> SNES Linear/Non-Linear Iterations = 1 / 1
  --> SNES Residual: 0.386240E-15 0.386240E-15 0.936751E-16
  --> max change:  dcmx=   1.1636E-02  dc/dt=   2.5558E-06 [mol/s]
 Maximum Pore Velocity:   7.5911E+00 [m/d]
 CFL Limiting ( 1.0):   1.0539E-01 ->   5.2693E-02 [d]

== REACTIVE TRANSPORT ==========================================================
  0 2r: 1.51E-03 2x: 0.00E+00 2u: 0.00E+00 ir: 2.55E-04 iu: 0.00E+00 rsn:   0
  1 2r: 2.93E-16 2x: 8.16E+00 2u: 6.77E-02 ir: 7.81E-17 iu: 1.15E-02 rsn: rtol

 Step     90 Time=  4.15569E+00 Dt=  5.26933E-02 [d] conv_reason: 3
  newton =   1 [      90] linear =     1 [        90] cuts =  0 [   0]
  --> SNES Linear/Non-Linear Iterations = 1 / 1
  --> SNES Residual: 0.292850E-15 0.292850E-15 0.780626E-16
  --> max change:  dcmx=   1.1529E-02  dc/dt=   2.5323E-06 [mol/s]
 Maximum Pore Velocity:   7.5911E+00 [m/d]
 CFL Limiting ( 1.0):   1.0539E-01 ->   5.2693E-02 [d]

== REACTIVE TRANSPORT ==========================================================
  0 2r: 1.48E-03 2x: 0.00E+00 2u: 0.00E+00 ir: 2.53E-04 iu: 0.00E+00 rsn:   0
  1 2r: 3.61E-16 2x: 8.20E+00 2u: 6.64E-02 ir: 1.11E-16 iu: 1.14E-02 rsn: rtol

 Step     91 Time=  4.20838E+00 Dt=  5.26933E-02 [d] conv_reason: 3
  newton =   1 [      91] linear =     1 [        91] cuts =  0 [   0]
  --> SNES Linear/Non-Linear Iterations = 1 / 1
  --> SNES Residual: 0.360510E-15 0.360510E-15 0.111022E-15
  --> max change:  dcmx=   1.1414E-02  dc/dt=   2.5072E-06 [mol/s]
 Maximum Pore Velocity:   7.5911E+00 [m/d]
 CFL Limiting ( 1.0):   1.0539E-01 ->   5.2693E-02 [d]

== REACTIVE TRANSPORT ==========================================================
  0 2r: 1.46E-03 2x: 0.00E+00 2u: 0.00E+00 ir: 2.50E-04 iu: 0.00E+00 rsn:   0
  1 2r: 3.85E-16 2x: 8.25E+00 2u: 6.52E-02 ir: 1.21E-16 iu: 1.13E-02 rsn: rtol

 Step     92 Time=  4.26108E+00 Dt=  5.26933E-02 [d] conv_reason: 3
  newton =   1 [      92] linear =     1 [        92] cuts =  0 [   0]
  --> SNES Linear/Non-Linear Iterations = 1 / 1
  --> SNES Residual: 0.384569E-15 0.384569E-15 0.121431E-15
  --> max change:  dcmx=   1.1294E-02  dc/dt=   2.4807E-06 [mol/s]
 Maximum Pore Velocity:   7.5911E+00 [m/d]
 CFL Limiting ( 1.0):   1.0539E-01 ->   5.2693E-02 [d]

== REACTIVE TRANSPORT ==========================================================
  0 2r: 1.43E-03 2x: 0.00E+00 2u: 0.00E+00 ir: 2.47E-04 iu: 0.00E+00 rsn:   0
  1 2r: 4.04E-16 2x: 8.29E+00 2u: 6.40E-02 ir: 1.14E-16 iu: 1.12E-02 rsn: rtol

 Step     93 Time=  4.31377E+00 Dt=  5.26933E-02 [d] conv_reason: 3
  newton =   1 [      93] linear =     1 [        93] cuts =  0 [   0]
  --> SNES Linear/Non-Linear Iterations = 1 / 1
  --> SNES Residual: 0.403848E-15 0.403848E-15 0.114492E-15
  --> max change:  dcmx=   1.1167E-02  dc/dt=   2.4528E-06 [mol/s]
 Maximum Pore Velocity:   7.5911E+00 [m/d]
 CFL Limiting ( 1.0):   1.0539E-01 ->   5.2693E-02 [d]

== REACTIVE TRANSPORT ==========================================================
  0 2r: 1.40E-03 2x: 0.00E+00 2u: 0.00E+00 ir: 2.45E-04 iu: 0.00E+00 rsn:   0
  1 2r: 4.06E-16 2x: 8.33E+00 2u: 6.14E-02 ir: 9.71E-17 iu: 1.08E-02 rsn: rtol

 Step     94 Time=  4.36529E+00 Dt=  5.15201E-02 [d] conv_reason: 3
  newton =   1 [      94] linear =     1 [        94] cuts =  0 [   0]
  --> SNES Linear/Non-Linear Iterations = 1 / 1
  --> SNES Residual: 0.406048E-15 0.406048E-15 0.971445E-16
  --> max change:  dcmx=   1.0792E-02  dc/dt=   2.4245E-06 [mol/s]
 Maximum Pore Velocity:   7.5911E+00 [m/d]
 CFL Limiting ( 1.0):   1.0304E-01 ->   5.2693E-02 [d]

== RICHARDS FLOW ===============================================================
  0 2r: 4.87E-16 2x: 0.00E+00 2u: 0.00E+00 ir: 1.48E-16 iu: 0.00E+00 rsn:   0
  1 2r: 4.87E-16 2x: 1.26E+06 2u: 6.12E-11 ir: 1.48E-16 iu: 1.44E-11 rsn: stol

 Step     19 Time=  5.36529E+00 Dt=  1.00000E+00 [d] conv_reason: 4
  newton =   1 [      21] linear =     1 [        21] cuts =  0 [   0]
  --> SNES Linear/Non-Linear Iterations = 1 / 1
  --> SNES Residual: 0.486615E-15 0.486615E-17 0.148319E-15
  --> max change: dpmx=   0.0000E+00

== REACTIVE TRANSPORT ==========================================================
  0 2r: 1.38E-03 2x: 0.00E+00 2u: 0.00E+00 ir: 2.42E-04 iu: 0.00E+00 rsn:   0
  1 2r: 4.09E-16 2x: 8.37E+00 2u: 6.16E-02 ir: 8.67E-17 iu: 1.09E-02 rsn: rtol

 Step     95 Time=  4.41798E+00 Dt=  5.26933E-02 [d] conv_reason: 3
  newton =   1 [      95] linear =     1 [        95] cuts =  0 [   0]
  --> SNES Linear/Non-Linear Iterations = 1 / 1
  --> SNES Residual: 0.408729E-15 0.408729E-15 0.867362E-16
  --> max change:  dcmx=   1.0901E-02  dc/dt=   2.3944E-06 [mol/s]
 Maximum Pore Velocity:   7.5911E+00 [m/d]
 CFL Limiting ( 1.0):   1.0539E-01 ->   5.2693E-02 [d]

== REACTIVE TRANSPORT ==========================================================
  0 2r: 1.35E-03 2x: 0.00E+00 2u: 0.00E+00 ir: 2.39E-04 iu: 0.00E+00 rsn:   0
  1 2r: 4.49E-16 2x: 8.41E+00 2u: 6.04E-02 ir: 1.11E-16 iu: 1.08E-02 rsn: rtol

 Step     96 Time=  4.47068E+00 Dt=  5.26933E-02 [d] conv_reason: 3
  newton =   1 [      96] linear =     1 [        96] cuts =  0 [   0]
  --> SNES Linear/Non-Linear Iterations = 1 / 1
  --> SNES Residual: 0.448603E-15 0.448603E-15 0.111022E-15
  --> max change:  dcmx=   1.0760E-02  dc/dt=   2.3633E-06 [mol/s]
 Maximum Pore Velocity:   7.5911E+00 [m/d]
 CFL Limiting ( 1.0):   1.0539E-01 ->   5.2693E-02 [d]

== REACTIVE TRANSPORT ==========================================================
  0 2r: 1.32E-03 2x: 0.00E+00 2u: 0.00E+00 ir: 2.36E-04 iu: 0.00E+00 rsn:   0
  1 2r: 4.18E-16 2x: 8.45E+00 2u: 5.91E-02 ir: 1.09E-16 iu: 1.06E-02 rsn: rtol

 Step     97 Time=  4.52337E+00 Dt=  5.26933E-02 [d] conv_reason: 3
  newton =   1 [      97] linear =     1 [        97] cuts =  0 [   0]
  --> SNES Linear/Non-Linear Iterations = 1 / 1
  --> SNES Residual: 0.418000E-15 0.418000E-15 0.109288E-15
  --> max change:  dcmx=   1.0614E-02  dc/dt=   2.3314E-06 [mol/s]
 Maximum Pore Velocity:   7.5911E+00 [m/d]
 CFL Limiting ( 1.0):   1.0539E-01 ->   5.2693E-02 [d]

== REACTIVE TRANSPORT ==========================================================
  0 2r: 1.30E-03 2x: 0.00E+00 2u: 0.00E+00 ir: 2.32E-04 iu: 0.00E+00 rsn:   0
  1 2r: 3.72E-16 2x: 8.49E+00 2u: 5.80E-02 ir: 9.54E-17 iu: 1.05E-02 rsn: rtol

 Step     98 Time=  4.57606E+00 Dt=  5.26933E-02 [d] conv_reason: 3
  newton =   1 [      98] linear =     1 [        98] cuts =  0 [   0]
  --> SNES Linear/Non-Linear Iterations = 1 / 1
  --> SNES Residual: 0.371846E-15 0.371846E-15 0.954098E-16
  --> max change:  dcmx=   1.0465E-02  dc/dt=   2.2987E-06 [mol/s]
 Maximum Pore Velocity:   7.5911E+00 [m/d]
 CFL Limiting ( 1.0):   1.0539E-01 ->   5.2693E-02 [d]

== REACTIVE TRANSPORT ==========================================================
  0 2r: 1.27E-03 2x: 0.00E+00 2u: 0.00E+00 ir: 2.29E-04 iu: 0.00E+00 rsn:   0
  1 2r: 4.32E-16 2x: 8.52E+00 2u: 5.68E-02 ir: 1.14E-16 iu: 1.03E-02 rsn: rtol

 Step     99 Time=  4.62876E+00 Dt=  5.26933E-02 [d] conv_reason: 3
  newton =   1 [      99] linear =     1 [        99] cuts =  0 [   0]
  --> SNES Linear/Non-Linear Iterations = 1 / 1
  --> SNES Residual: 0.432479E-15 0.432479E-15 0.114492E-15
  --> max change:  dcmx=   1.0313E-02  dc/dt=   2.2652E-06 [mol/s]
 Maximum Pore Velocity:   7.5911E+00 [m/d]
 CFL Limiting ( 1.0):   1.0539E-01 ->   5.2693E-02 [d]

[...]
  1 2r: 4.39E-16 2x: 9.84E+00 2u: 8.26E-03 ir: 1.14E-16 iu: 1.74E-03 rsn: rtol

 Step    173 Time=  8.52337E+00 Dt=  5.26933E-02 [d] conv_reason: 3
  newton =   1 [     173] linear =     1 [       173] cuts =  0 [   0]
  --> SNES Linear/Non-Linear Iterations = 1 / 1
  --> SNES Residual: 0.439197E-15 0.439197E-15 0.114492E-15
  --> max change:  dcmx=   1.7449E-03  dc/dt=   3.8326E-07 [mol/s]
 Maximum Pore Velocity:   7.5911E+00 [m/d]
 CFL Limiting ( 1.0):   1.0539E-01 ->   5.2693E-02 [d]

== REACTIVE TRANSPORT ==========================================================
  0 2r: 1.81E-04 2x: 0.00E+00 2u: 0.00E+00 ir: 3.82E-05 iu: 0.00E+00 rsn:   0
  1 2r: 4.35E-16 2x: 9.84E+00 2u: 8.02E-03 ir: 1.21E-16 iu: 1.70E-03 rsn: rtol

 Step    174 Time=  8.57606E+00 Dt=  5.26933E-02 [d] conv_reason: 3
  newton =   1 [     174] linear =     1 [       174] cuts =  0 [   0]
  --> SNES Linear/Non-Linear Iterations = 1 / 1
  --> SNES Residual: 0.434997E-15 0.434997E-15 0.121431E-15
  --> max change:  dcmx=   1.6960E-03  dc/dt=   3.7252E-07 [mol/s]
 Maximum Pore Velocity:   7.5911E+00 [m/d]
 CFL Limiting ( 1.0):   1.0539E-01 ->   5.2693E-02 [d]

== REACTIVE TRANSPORT ==========================================================
  0 2r: 1.76E-04 2x: 0.00E+00 2u: 0.00E+00 ir: 3.71E-05 iu: 0.00E+00 rsn:   0
  1 2r: 4.95E-16 2x: 9.85E+00 2u: 7.79E-03 ir: 1.21E-16 iu: 1.65E-03 rsn: rtol

 Step    175 Time=  8.62876E+00 Dt=  5.26933E-02 [d] conv_reason: 3
  newton =   1 [     175] linear =     1 [       175] cuts =  0 [   0]
  --> SNES Linear/Non-Linear Iterations = 1 / 1
  --> SNES Residual: 0.494576E-15 0.494576E-15 0.121431E-15
  --> max change:  dcmx=   1.6484E-03  dc/dt=   3.6206E-07 [mol/s]
 Maximum Pore Velocity:   7.5911E+00 [m/d]
 CFL Limiting ( 1.0):   1.0539E-01 ->   5.2693E-02 [d]

== REACTIVE TRANSPORT ==========================================================
  0 2r: 1.71E-04 2x: 0.00E+00 2u: 0.00E+00 ir: 3.61E-05 iu: 0.00E+00 rsn:   0
  1 2r: 4.18E-16 2x: 9.85E+00 2u: 7.57E-03 ir: 1.18E-16 iu: 1.60E-03 rsn: rtol

 Step    176 Time=  8.68145E+00 Dt=  5.26933E-02 [d] conv_reason: 3
  newton =   1 [     176] linear =     1 [       176] cuts =  0 [   0]
  --> SNES Linear/Non-Linear Iterations = 1 / 1
  --> SNES Residual: 0.418007E-15 0.418007E-15 0.117961E-15
  --> max change:  dcmx=   1.6020E-03  dc/dt=   3.5188E-07 [mol/s]
 Maximum Pore Velocity:   7.5911E+00 [m/d]
 CFL Limiting ( 1.0):   1.0539E-01 ->   5.2693E-02 [d]

== REACTIVE TRANSPORT ==========================================================
  0 2r: 1.66E-04 2x: 0.00E+00 2u: 0.00E+00 ir: 3.51E-05 iu: 0.00E+00 rsn:   0
  1 2r: 3.48E-16 2x: 9.86E+00 2u: 7.35E-03 ir: 7.98E-17 iu: 1.56E-03 rsn: rtol

 Step    177 Time=  8.73414E+00 Dt=  5.26933E-02 [d] conv_reason: 3
  newton =   1 [     177] linear =     1 [       177] cuts =  0 [   0]
  --> SNES Linear/Non-Linear Iterations = 1 / 1
  --> SNES Residual: 0.348088E-15 0.348088E-15 0.797973E-16
  --> max change:  dcmx=   1.5569E-03  dc/dt=   3.4197E-07 [mol/s]
 Maximum Pore Velocity:   7.5911E+00 [m/d]
 CFL Limiting ( 1.0):   1.0539E-01 ->   5.2693E-02 [d]

== REACTIVE TRANSPORT ==========================================================
  0 2r: 1.61E-04 2x: 0.00E+00 2u: 0.00E+00 ir: 3.41E-05 iu: 0.00E+00 rsn:   0
  1 2r: 3.93E-16 2x: 9.86E+00 2u: 7.14E-03 ir: 1.25E-16 iu: 1.51E-03 rsn: rtol

 Step    178 Time=  8.78684E+00 Dt=  5.26933E-02 [d] conv_reason: 3
  newton =   1 [     178] linear =     1 [       178] cuts =  0 [   0]
  --> SNES Linear/Non-Linear Iterations = 1 / 1
  --> SNES Residual: 0.392998E-15 0.392998E-15 0.124900E-15
  --> max change:  dcmx=   1.5130E-03  dc/dt=   3.3233E-07 [mol/s]
 Maximum Pore Velocity:   7.5911E+00 [m/d]
 CFL Limiting ( 1.0):   1.0539E-01 ->   5.2693E-02 [d]

== REACTIVE TRANSPORT ==========================================================
  0 2r: 1.56E-04 2x: 0.00E+00 2u: 0.00E+00 ir: 3.31E-05 iu: 0.00E+00 rsn:   0
  1 2r: 4.19E-16 2x: 9.87E+00 2u: 6.94E-03 ir: 1.04E-16 iu: 1.47E-03 rsn: rtol

 Step    179 Time=  8.83953E+00 Dt=  5.26933E-02 [d] conv_reason: 3
  newton =   1 [     179] linear =     1 [       179] cuts =  0 [   0]
  --> SNES Linear/Non-Linear Iterations = 1 / 1
  --> SNES Residual: 0.418928E-15 0.418928E-15 0.104083E-15
  --> max change:  dcmx=   1.4702E-03  dc/dt=   3.2294E-07 [mol/s]
 Maximum Pore Velocity:   7.5911E+00 [m/d]
 CFL Limiting ( 1.0):   1.0539E-01 ->   5.2693E-02 [d]

== REACTIVE TRANSPORT ==========================================================
  0 2r: 1.52E-04 2x: 0.00E+00 2u: 0.00E+00 ir: 3.22E-05 iu: 0.00E+00 rsn:   0
  1 2r: 4.07E-16 2x: 9.87E+00 2u: 6.74E-03 ir: 1.28E-16 iu: 1.43E-03 rsn: rtol

 Step    180 Time=  8.89222E+00 Dt=  5.26933E-02 [d] conv_reason: 3
  newton =   1 [     180] linear =     1 [       180] cuts =  0 [   0]
  --> SNES Linear/Non-Linear Iterations = 1 / 1
  --> SNES Residual: 0.407006E-15 0.407006E-15 0.128370E-15
  --> max change:  dcmx=   1.4286E-03  dc/dt=   3.1380E-07 [mol/s]
 Maximum Pore Velocity:   7.5911E+00 [m/d]
 CFL Limiting ( 1.0):   1.0539E-01 ->   5.2693E-02 [d]

== REACTIVE TRANSPORT ==========================================================
  0 2r: 1.48E-04 2x: 0.00E+00 2u: 0.00E+00 ir: 3.13E-05 iu: 0.00E+00 rsn:   0
  1 2r: 4.75E-16 2x: 9.88E+00 2u: 6.55E-03 ir: 1.21E-16 iu: 1.39E-03 rsn: rtol

 Step    181 Time=  8.94492E+00 Dt=  5.26933E-02 [d] conv_reason: 3
  newton =   1 [     181] linear =     1 [       181] cuts =  0 [   0]
  --> SNES Linear/Non-Linear Iterations = 1 / 1
  --> SNES Residual: 0.475441E-15 0.475441E-15 0.121431E-15
  --> max change:  dcmx=   1.3882E-03  dc/dt=   3.0491E-07 [mol/s]
 Maximum Pore Velocity:   7.5911E+00 [m/d]
 CFL Limiting ( 1.0):   1.0539E-01 ->   5.2693E-02 [d]

== REACTIVE TRANSPORT ==========================================================
  0 2r: 1.43E-04 2x: 0.00E+00 2u: 0.00E+00 ir: 3.04E-05 iu: 0.00E+00 rsn:   0
  1 2r: 4.30E-16 2x: 9.88E+00 2u: 6.36E-03 ir: 1.04E-16 iu: 1.35E-03 rsn: rtol

 Step    182 Time=  8.99761E+00 Dt=  5.26933E-02 [d] conv_reason: 3
  newton =   1 [     182] linear =     1 [       182] cuts =  0 [   0]
  --> SNES Linear/Non-Linear Iterations = 1 / 1
  --> SNES Residual: 0.430393E-15 0.430393E-15 0.104083E-15
  --> max change:  dcmx=   1.3488E-03  dc/dt=   2.9626E-07 [mol/s]
 Maximum Pore Velocity:   7.5911E+00 [m/d]
 CFL Limiting ( 1.0):   1.0539E-01 ->   5.2693E-02 [d]

== REACTIVE TRANSPORT ==========================================================
  0 2r: 1.39E-04 2x: 0.00E+00 2u: 0.00E+00 ir: 2.95E-05 iu: 0.00E+00 rsn:   0
  1 2r: 3.92E-16 2x: 9.89E+00 2u: 6.17E-03 ir: 1.14E-16 iu: 1.31E-03 rsn: rtol

 Step    183 Time=  9.05030E+00 Dt=  5.26933E-02 [d] conv_reason: 3
  newton =   1 [     183] linear =     1 [       183] cuts =  0 [   0]
  --> SNES Linear/Non-Linear Iterations = 1 / 1
  --> SNES Residual: 0.392278E-15 0.392278E-15 0.114492E-15
  --> max change:  dcmx=   1.3104E-03  dc/dt=   2.8784E-07 [mol/s]
 Maximum Pore Velocity:   7.5911E+00 [m/d]
 CFL Limiting ( 1.0):   1.0539E-01 ->   5.2693E-02 [d]

== REACTIVE TRANSPORT ==========================================================
  0 2r: 1.35E-04 2x: 0.00E+00 2u: 0.00E+00 ir: 2.87E-05 iu: 0.00E+00 rsn:   0
  1 2r: 4.02E-16 2x: 9.89E+00 2u: 6.00E-03 ir: 1.11E-16 iu: 1.27E-03 rsn: rtol

 Step    184 Time=  9.10300E+00 Dt=  5.26933E-02 [d] conv_reason: 3
  newton =   1 [     184] linear =     1 [       184] cuts =  0 [   0]
  --> SNES Linear/Non-Linear Iterations = 1 / 1
  --> SNES Residual: 0.401677E-15 0.401677E-15 0.111022E-15
  --> max change:  dcmx=   1.2732E-03  dc/dt=   2.7965E-07 [mol/s]
 Maximum Pore Velocity:   7.5911E+00 [m/d]
 CFL Limiting ( 1.0):   1.0539E-01 ->   5.2693E-02 [d]

== REACTIVE TRANSPORT ==========================================================
  0 2r: 1.31E-04 2x: 0.00E+00 2u: 0.00E+00 ir: 2.79E-05 iu: 0.00E+00 rsn:   0
  1 2r: 4.11E-16 2x: 9.89E+00 2u: 5.82E-03 ir: 1.32E-16 iu: 1.24E-03 rsn: rtol

 Step    185 Time=  9.15569E+00 Dt=  5.26933E-02 [d] conv_reason: 3
  newton =   1 [     185] linear =     1 [       185] cuts =  0 [   0]
  --> SNES Linear/Non-Linear Iterations = 1 / 1
  --> SNES Residual: 0.410774E-15 0.410774E-15 0.131839E-15
  --> max change:  dcmx=   1.2369E-03  dc/dt=   2.7168E-07 [mol/s]
 Maximum Pore Velocity:   7.5911E+00 [m/d]
 CFL Limiting ( 1.0):   1.0539E-01 ->   5.2693E-02 [d]

== REACTIVE TRANSPORT ==========================================================
  0 2r: 1.28E-04 2x: 0.00E+00 2u: 0.00E+00 ir: 2.71E-05 iu: 0.00E+00 rsn:   0
  1 2r: 4.11E-16 2x: 9.90E+00 2u: 5.65E-03 ir: 1.35E-16 iu: 1.20E-03 rsn: rtol

 Step    186 Time=  9.20838E+00 Dt=  5.26933E-02 [d] conv_reason: 3
  newton =   1 [     186] linear =     1 [       186] cuts =  0 [   0]
  --> SNES Linear/Non-Linear Iterations = 1 / 1
  --> SNES Residual: 0.410730E-15 0.410730E-15 0.135308E-15
  --> max change:  dcmx=   1.2016E-03  dc/dt=   2.6393E-07 [mol/s]
 Maximum Pore Velocity:   7.5911E+00 [m/d]
 CFL Limiting ( 1.0):   1.0539E-01 ->   5.2693E-02 [d]

== REACTIVE TRANSPORT ==========================================================
  0 2r: 1.24E-04 2x: 0.00E+00 2u: 0.00E+00 ir: 2.63E-05 iu: 0.00E+00 rsn:   0
  1 2r: 4.77E-16 2x: 9.90E+00 2u: 5.49E-03 ir: 1.46E-16 iu: 1.17E-03 rsn: rtol

 Step    187 Time=  9.26108E+00 Dt=  5.26933E-02 [d] conv_reason: 3
  newton =   1 [     187] linear =     1 [       187] cuts =  0 [   0]
  --> SNES Linear/Non-Linear Iterations = 1 / 1
  --> SNES Residual: 0.477462E-15 0.477462E-15 0.145717E-15
  --> max change:  dcmx=   1.1673E-03  dc/dt=   2.5639E-07 [mol/s]
 Maximum Pore Velocity:   7.5911E+00 [m/d]
 CFL Limiting ( 1.0):   1.0539E-01 ->   5.2693E-02 [d]

== REACTIVE TRANSPORT ==========================================================
  0 2r: 1.20E-04 2x: 0.00E+00 2u: 0.00E+00 ir: 2.56E-05 iu: 0.00E+00 rsn:   0
  1 2r: 4.12E-16 2x: 9.90E+00 2u: 5.33E-03 ir: 1.04E-16 iu: 1.13E-03 rsn: rtol

 Step    188 Time=  9.31377E+00 Dt=  5.26933E-02 [d] conv_reason: 3
  newton =   1 [     188] linear =     1 [       188] cuts =  0 [   0]
  --> SNES Linear/Non-Linear Iterations = 1 / 1
  --> SNES Residual: 0.411506E-15 0.411506E-15 0.104083E-15
  --> max change:  dcmx=   1.1339E-03  dc/dt=   2.4906E-07 [mol/s]
 Maximum Pore Velocity:   7.5911E+00 [m/d]
 CFL Limiting ( 1.0):   1.0539E-01 ->   5.2693E-02 [d]

== REACTIVE TRANSPORT ==========================================================
  0 2r: 1.17E-04 2x: 0.00E+00 2u: 0.00E+00 ir: 2.48E-05 iu: 0.00E+00 rsn:   0
  1 2r: 5.44E-16 2x: 9.91E+00 2u: 5.07E-03 ir: 1.56E-16 iu: 1.08E-03 rsn: rtol

 Step    189 Time=  9.36529E+00 Dt=  5.15201E-02 [d] conv_reason: 3
  newton =   1 [     189] linear =     1 [       189] cuts =  0 [   0]
  --> SNES Linear/Non-Linear Iterations = 1 / 1
  --> SNES Residual: 0.544272E-15 0.544272E-15 0.156125E-15
  --> max change:  dcmx=   1.0776E-03  dc/dt=   2.4208E-07 [mol/s]
 Maximum Pore Velocity:   7.5911E+00 [m/d]
 CFL Limiting ( 1.0):   1.0304E-01 ->   5.2693E-02 [d]

== RICHARDS FLOW ===============================================================
  0 2r: 4.87E-16 2x: 0.00E+00 2u: 0.00E+00 ir: 1.48E-16 iu: 0.00E+00 rsn:   0
  1 2r: 4.87E-16 2x: 1.26E+06 2u: 6.12E-11 ir: 1.48E-16 iu: 1.44E-11 rsn: stol

 Step     24 Time=  1.00000E+01 Dt=  6.34708E-01 [d] conv_reason: 4
  newton =   1 [      26] linear =     1 [        26] cuts =  0 [   0]
  --> SNES Linear/Non-Linear Iterations = 1 / 1
  --> SNES Residual: 0.486615E-15 0.486615E-17 0.148319E-15
  --> max change: dpmx=   0.0000E+00

== REACTIVE TRANSPORT ==========================================================
  0 2r: 1.13E-04 2x: 0.00E+00 2u: 0.00E+00 ir: 2.41E-05 iu: 0.00E+00 rsn:   0
  1 2r: 4.12E-16 2x: 9.91E+00 2u: 5.03E-03 ir: 1.25E-16 iu: 1.07E-03 rsn: rtol

 Step    190 Time=  9.41798E+00 Dt=  5.26933E-02 [d] conv_reason: 3
  newton =   1 [     190] linear =     1 [       190] cuts =  0 [   0]
  --> SNES Linear/Non-Linear Iterations = 1 / 1
  --> SNES Residual: 0.411623E-15 0.411623E-15 0.124900E-15
  --> max change:  dcmx=   1.0705E-03  dc/dt=   2.3514E-07 [mol/s]
 Maximum Pore Velocity:   7.5911E+00 [m/d]
 CFL Limiting ( 1.0):   1.0539E-01 ->   5.2693E-02 [d]

== REACTIVE TRANSPORT ==========================================================
  0 2r: 1.10E-04 2x: 0.00E+00 2u: 0.00E+00 ir: 2.34E-05 iu: 0.00E+00 rsn:   0
  1 2r: 4.57E-16 2x: 9.92E+00 2u: 4.88E-03 ir: 1.14E-16 iu: 1.04E-03 rsn: rtol

 Step    191 Time=  9.47068E+00 Dt=  5.26933E-02 [d] conv_reason: 3
  newton =   1 [     191] linear =     1 [       191] cuts =  0 [   0]
  --> SNES Linear/Non-Linear Iterations = 1 / 1
  --> SNES Residual: 0.456796E-15 0.456796E-15 0.114492E-15
  --> max change:  dcmx=   1.0398E-03  dc/dt=   2.2840E-07 [mol/s]
 Maximum Pore Velocity:   7.5911E+00 [m/d]
 CFL Limiting ( 1.0):   1.0539E-01 ->   5.2693E-02 [d]

== REACTIVE TRANSPORT ==========================================================
  0 2r: 1.07E-04 2x: 0.00E+00 2u: 0.00E+00 ir: 2.28E-05 iu: 0.00E+00 rsn:   0
  1 2r: 4.82E-16 2x: 9.92E+00 2u: 4.74E-03 ir: 1.18E-16 iu: 1.01E-03 rsn: rtol

 Step    192 Time=  9.52337E+00 Dt=  5.26933E-02 [d] conv_reason: 3
  newton =   1 [     192] linear =     1 [       192] cuts =  0 [   0]
  --> SNES Linear/Non-Linear Iterations = 1 / 1
  --> SNES Residual: 0.481929E-15 0.481929E-15 0.117961E-15
  --> max change:  dcmx=   1.0100E-03  dc/dt=   2.2184E-07 [mol/s]
 Maximum Pore Velocity:   7.5911E+00 [m/d]
 CFL Limiting ( 1.0):   1.0539E-01 ->   5.2693E-02 [d]

== REACTIVE TRANSPORT ==========================================================
  0 2r: 1.04E-04 2x: 0.00E+00 2u: 0.00E+00 ir: 2.21E-05 iu: 0.00E+00 rsn:   0
  1 2r: 4.73E-16 2x: 9.92E+00 2u: 4.60E-03 ir: 1.46E-16 iu: 9.81E-04 rsn: rtol

 Step    193 Time=  9.57606E+00 Dt=  5.26933E-02 [d] conv_reason: 3
  newton =   1 [     193] linear =     1 [       193] cuts =  0 [   0]
  --> SNES Linear/Non-Linear Iterations = 1 / 1
  --> SNES Residual: 0.473157E-15 0.473157E-15 0.145717E-15
  --> max change:  dcmx=   9.8091E-04  dc/dt=   2.1546E-07 [mol/s]
 Maximum Pore Velocity:   7.5911E+00 [m/d]
 CFL Limiting ( 1.0):   1.0539E-01 ->   5.2693E-02 [d]

== REACTIVE TRANSPORT ==========================================================
  0 2r: 1.01E-04 2x: 0.00E+00 2u: 0.00E+00 ir: 2.15E-05 iu: 0.00E+00 rsn:   0
  1 2r: 4.18E-16 2x: 9.93E+00 2u: 4.47E-03 ir: 1.25E-16 iu: 9.53E-04 rsn: rtol

 Step    194 Time=  9.62876E+00 Dt=  5.26933E-02 [d] conv_reason: 3
  newton =   1 [     194] linear =     1 [       194] cuts =  0 [   0]
  --> SNES Linear/Non-Linear Iterations = 1 / 1
  --> SNES Residual: 0.417705E-15 0.417705E-15 0.124900E-15
  --> max change:  dcmx=   9.5267E-04  dc/dt=   2.0925E-07 [mol/s]
 Maximum Pore Velocity:   7.5911E+00 [m/d]
 CFL Limiting ( 1.0):   1.0539E-01 ->   5.2693E-02 [d]

== REACTIVE TRANSPORT ==========================================================
  0 2r: 9.79E-05 2x: 0.00E+00 2u: 0.00E+00 ir: 2.09E-05 iu: 0.00E+00 rsn:   0
  1 2r: 4.62E-16 2x: 9.93E+00 2u: 4.34E-03 ir: 9.71E-17 iu: 9.25E-04 rsn: rtol

 Step    195 Time=  9.68145E+00 Dt=  5.26933E-02 [d] conv_reason: 3
  newton =   1 [     195] linear =     1 [       195] cuts =  0 [   0]
  --> SNES Linear/Non-Linear Iterations = 1 / 1
  --> SNES Residual: 0.461893E-15 0.461893E-15 0.971445E-16
  --> max change:  dcmx=   9.2521E-04  dc/dt=   2.0322E-07 [mol/s]
 Maximum Pore Velocity:   7.5911E+00 [m/d]
 CFL Limiting ( 1.0):   1.0539E-01 ->   5.2693E-02 [d]

== REACTIVE TRANSPORT ==========================================================
  0 2r: 9.51E-05 2x: 0.00E+00 2u: 0.00E+00 ir: 2.03E-05 iu: 0.00E+00 rsn:   0
  1 2r: 5.00E-16 2x: 9.93E+00 2u: 4.21E-03 ir: 1.01E-16 iu: 8.99E-04 rsn: rtol

 Step    196 Time=  9.73414E+00 Dt=  5.26933E-02 [d] conv_reason: 3
  newton =   1 [     196] linear =     1 [       196] cuts =  0 [   0]
  --> SNES Linear/Non-Linear Iterations = 1 / 1
  --> SNES Residual: 0.500479E-15 0.500479E-15 0.100614E-15
  --> max change:  dcmx=   8.9853E-04  dc/dt=   1.9736E-07 [mol/s]
 Maximum Pore Velocity:   7.5911E+00 [m/d]
 CFL Limiting ( 1.0):   1.0539E-01 ->   5.2693E-02 [d]

== REACTIVE TRANSPORT ==========================================================
  0 2r: 9.23E-05 2x: 0.00E+00 2u: 0.00E+00 ir: 1.97E-05 iu: 0.00E+00 rsn:   0
  1 2r: 4.18E-16 2x: 9.93E+00 2u: 4.09E-03 ir: 1.04E-16 iu: 8.73E-04 rsn: rtol

 Step    197 Time=  9.78684E+00 Dt=  5.26933E-02 [d] conv_reason: 3
  newton =   1 [     197] linear =     1 [       197] cuts =  0 [   0]
  --> SNES Linear/Non-Linear Iterations = 1 / 1
  --> SNES Residual: 0.417517E-15 0.417517E-15 0.104083E-15
  --> max change:  dcmx=   8.7258E-04  dc/dt=   1.9166E-07 [mol/s]
 Maximum Pore Velocity:   7.5911E+00 [m/d]
 CFL Limiting ( 1.0):   1.0539E-01 ->   5.2693E-02 [d]

== REACTIVE TRANSPORT ==========================================================
  0 2r: 8.96E-05 2x: 0.00E+00 2u: 0.00E+00 ir: 1.91E-05 iu: 0.00E+00 rsn:   0
  1 2r: 5.06E-16 2x: 9.94E+00 2u: 3.97E-03 ir: 1.21E-16 iu: 8.47E-04 rsn: rtol

 Step    198 Time=  9.83953E+00 Dt=  5.26933E-02 [d] conv_reason: 3
  newton =   1 [     198] linear =     1 [       198] cuts =  0 [   0]
  --> SNES Linear/Non-Linear Iterations = 1 / 1
  --> SNES Residual: 0.506397E-15 0.506397E-15 0.121431E-15
  --> max change:  dcmx=   8.4736E-04  dc/dt=   1.8612E-07 [mol/s]
 Maximum Pore Velocity:   7.5911E+00 [m/d]
 CFL Limiting ( 1.0):   1.0539E-01 ->   5.2693E-02 [d]

== REACTIVE TRANSPORT ==========================================================
  0 2r: 8.70E-05 2x: 0.00E+00 2u: 0.00E+00 ir: 1.86E-05 iu: 0.00E+00 rsn:   0
  1 2r: 4.43E-16 2x: 9.94E+00 2u: 3.86E-03 ir: 1.11E-16 iu: 8.23E-04 rsn: rtol

 Step    199 Time=  9.89222E+00 Dt=  5.26933E-02 [d] conv_reason: 3
  newton =   1 [     199] linear =     1 [       199] cuts =  0 [   0]
  --> SNES Linear/Non-Linear Iterations = 1 / 1
  --> SNES Residual: 0.443492E-15 0.443492E-15 0.111022E-15
  --> max change:  dcmx=   8.2285E-04  dc/dt=   1.8074E-07 [mol/s]
 Maximum Pore Velocity:   7.5911E+00 [m/d]
 CFL Limiting ( 1.0):   1.0539E-01 ->   5.2693E-02 [d]

== REACTIVE TRANSPORT ==========================================================
  0 2r: 8.44E-05 2x: 0.00E+00 2u: 0.00E+00 ir: 1.80E-05 iu: 0.00E+00 rsn:   0
  1 2r: 4.48E-16 2x: 9.94E+00 2u: 3.74E-03 ir: 1.32E-16 iu: 7.99E-04 rsn: rtol

 Step    200 Time=  9.94492E+00 Dt=  5.26933E-02 [d] conv_reason: 3
  newton =   1 [     200] linear =     1 [       200] cuts =  0 [   0]
  --> SNES Linear/Non-Linear Iterations = 1 / 1
  --> SNES Residual: 0.447935E-15 0.447935E-15 0.131839E-15
  --> max change:  dcmx=   7.9903E-04  dc/dt=   1.7551E-07 [mol/s]
 Maximum Pore Velocity:   7.5911E+00 [m/d]
 CFL Limiting ( 1.0):   1.0539E-01 ->   5.2693E-02 [d]

== REACTIVE TRANSPORT ==========================================================
  0 2r: 8.20E-05 2x: 0.00E+00 2u: 0.00E+00 ir: 1.75E-05 iu: 0.00E+00 rsn:   0
  1 2r: 4.89E-16 2x: 9.94E+00 2u: 3.79E-03 ir: 1.25E-16 iu: 8.10E-04 rsn: rtol

 Step    201 Time=  1.00000E+01 Dt=  5.50817E-02 [d] conv_reason: 3
  newton =   1 [     201] linear =     1 [       201] cuts =  0 [   0]
  --> SNES Linear/Non-Linear Iterations = 1 / 1
  --> SNES Residual: 0.489377E-15 0.489377E-15 0.124900E-15
  --> max change:  dcmx=   8.0998E-04  dc/dt=   1.7020E-07 [mol/s]
 Maximum Pore Velocity:   7.5911E+00 [m/d]
 CFL Limiting ( 1.0):   1.1016E-01 ->   5.2693E-02 [d]


PMCSubsurfaceFlow
 Total Time: 3.6782E-02 seconds

 FLOW TS SNES steps = 24  newton = 26  linear = 26  cuts = 0
 FLOW TS SNES Wasted Linear Iterations = 0
 FLOW TS SNES Wasted Newton Iterations = 0
 FLOW TS SNES time = 0.0 seconds

PMCSubsurfaceTransport
 Total Time: 2.2139E-01 seconds

 TRAN TS SNES steps = 201  newton = 201  linear = 201  cuts = 0
 TRAN TS SNES Wasted Linear Iterations = 0
 TRAN TS SNES Wasted Newton Iterations = 0
 TRAN TS SNES time = 0.2 seconds

 Wall Clock Time:  5.0694E-01 [sec]   8.4490E-03 [min]   1.4082E-04 [hr]

 Model completed: waiting for command to run model again.
 (Press <Ctl-C> if you wish to stop PSLAVE execution.)

 PEST has finished execution. Slave terminating.
