
=================
  PFLOTRAN v6.0
=================

"grid_structured_type" set to default value.
pflotran card:: NUMERICAL_METHODS
pflotran card:: GRID
pflotran card:: MATERIAL_PROPERTY
  Name :: soil1
pflotran card:: CHARACTERISTIC_CURVES
  Name :: default
 WARNING: Mualem-van Genuchten relative permeability function is being used without SMOOTH option.
pflotran card:: OUTPUT
"OUTPUT,SNAPSHOT_FILE,FORMAT,HDF5" set to default value.
pflotran card:: TIME
pflotran card:: REGION
all
pflotran card:: REGION
top
pflotran card:: REGION
bottom
pflotran card:: REGION
east
pflotran card:: REGION
west
pflotran card:: FLOW_CONDITION
initial
pflotran card:: FLOW_CONDITION
recharge
pflotran card:: FLOW_CONDITION
west
pflotran card:: FLOW_CONDITION
east
pflotran card:: INITIAL_CONDITION
"Initial Condition name" set to default value.
pflotran card:: BOUNDARY_CONDITION
pflotran card:: BOUNDARY_CONDITION
pflotran card:: BOUNDARY_CONDITION
pflotran card:: STRATA
pflotran card:: END_SUBSURFACE

Process Decomposition

Extent of Gridded Domain
 X: 0.000000E+00 - 2.220000E+02
 Y: 0.000000E+00 - 1.000000E+00
 Z: 0.000000E+00 - 6.100000E+00

Size of Gridded Domain
 Number of grid cells: 6660
 Maximum number of grid cells per process: 420
 Minimum number of grid cells per process: 405

Number of active grid cells: 6660
Number of inactive grid cells: 0


=+=+=+=+=+=+=+=+=+=+=+=+=+=+=+=+=+=+=+=+=+=+=+=+=+=+=+=+=+=+=+=+=+=+=+=+=+=+=+=+

  Initial Condition

--------------------------------------------------------------------------------
          Flow Condition:   initial
                  Region:   all
--------------------------------------------------------------------------------

  Flow Condition: initial
    Synchronize time with update: no
    Time units: yr
    Length units: m
      Datum:
        Dataset: Unnamed Ascii Dataset
          Type: dataset_ascii_type
          Transient: no
          Array Rank:  3

    Sub Condition: pressure
      Type: hydrostatic
      Gradient:
      Data:
        Dataset: Unnamed Ascii Dataset
          Type: dataset_ascii_type
          Transient: no
          Array Rank:  1

--------------------------------------------------------------------------------

=+=+=+=+=+=+=+=+=+=+=+=+=+=+=+=+=+=+=+=+=+=+=+=+=+=+=+=+=+=+=+=+=+=+=+=+=+=+=+=+

  Boundary Condition

--------------------------------------------------------------------------------
          Flow Condition:   recharge
                  Region:   top
--------------------------------------------------------------------------------

  Flow Condition: recharge
    Synchronize time with update: no
    Time units: yr
    Length units: m
      Datum:

    Sub Condition: pressure
      Type: neumann
      Gradient:
      Data:
        Dataset: Unnamed Ascii Dataset
          Type: dataset_ascii_type
          Transient: no
          Array Rank:  1

--------------------------------------------------------------------------------

=+=+=+=+=+=+=+=+=+=+=+=+=+=+=+=+=+=+=+=+=+=+=+=+=+=+=+=+=+=+=+=+=+=+=+=+=+=+=+=+

  Boundary Condition

--------------------------------------------------------------------------------
          Flow Condition:   east
                  Region:   east
--------------------------------------------------------------------------------

  Flow Condition: east
    Synchronize time with update: no
    Time units: yr
    Length units: m
      Datum:
        Dataset: Unnamed Ascii Dataset
          Type: dataset_ascii_type
          Filename: ./BSFR_stage.txt
          Is transient?: yes
          Number of times:      2
          Is cyclic?: yes
          Buffer:
            Rank:  2
            Dims:    3   2
            Buffer Slice Size:   0
          Array Rank:  3

    Sub Condition: pressure
      Type: conductance
      Gradient:
      Data:
        Dataset: Unnamed Ascii Dataset
          Type: dataset_ascii_type
          Transient: no
          Array Rank:  1

--------------------------------------------------------------------------------

=+=+=+=+=+=+=+=+=+=+=+=+=+=+=+=+=+=+=+=+=+=+=+=+=+=+=+=+=+=+=+=+=+=+=+=+=+=+=+=+

  Boundary Condition

--------------------------------------------------------------------------------
          Flow Condition:   west
                  Region:   west
--------------------------------------------------------------------------------

  Flow Condition: west
    Synchronize time with update: no
    Time units: yr
    Length units: m
      Datum:
        Dataset: Unnamed Ascii Dataset
          Type: dataset_ascii_type
          Filename: ./HBSFC_stage.txt
          Is transient?: yes
          Number of times:      2
          Is cyclic?: yes
          Buffer:
            Rank:  2
            Dims:    3   2
            Buffer Slice Size:   0
          Array Rank:  3

    Sub Condition: pressure
      Type: conductance
      Gradient:
      Data:
        Dataset: Unnamed Ascii Dataset
          Type: dataset_ascii_type
          Transient: no
          Array Rank:  1

--------------------------------------------------------------------------------
Default HDF5 method is used in Initialization
  Beginning setup of FLOW SNES
 number of dofs =   1, number of phases =   1
 mode = Richards: p
  Finished setting up FLOW SNES

 Requested processors and decomposition =    16, npx,y,z=   -1  -1  -1
 Actual decomposition: npx,y,z=    8   1   2


FLOW Time Stepper SNES
      maximum number of steps: 999999
constant time steps threshold: 5
       maximum number of cuts: 16
             reduction factor: 5.000000E-01
        maximum growth factor: 2.000000E+00
                 acceleration: on
       acceleration threshold: 5
       number of ramp entries: 5
                ramp entry #1: 2.0000
                ramp entry #2: 2.0000
                ramp entry #3: 2.0000
                ramp entry #4: 2.0000
                ramp entry #5: 2.0000
                ramp entry #6: 1.8000
                ramp entry #7: 1.6000
                ramp entry #8: 1.4000
                ramp entry #9: 1.2000
               ramp entry #10: 1.0000
               ramp entry #11: 1.0000
               ramp entry #12: 1.0000
               ramp entry #13: 1.0000

FLOW Newton Solver
                         atol: 1.000000E-50
                         rtol: 1.000000E-08
                         stol: 1.000000E-08
                         dtol: 1.000000E+04
                      maxnorm: 1.000000E+20
                    inftolres: -9.990000E+02
                    inftolupd: -9.990000E+02
                 inftolrelupd: -9.990000E+02
                 inftolsclres: -9.990000E+02
                     max iter: 50
                     min iter: 1
                         maxf: 10000
                  matrix type: baij
         precond. matrix type: baij
               inexact newton: off
            print convergence: on
   print detailed convergence: off
          check infinity norm: on

FLOW Linear Solver
                       solver: bcgs
               preconditioner: bjacobi
                         atol: 1.000000E-50
                         rtol: 1.000000E-05
                         dtol: 1.000000E+04
            maximum iteration: 10000

 --> creating hdf5 output file: 2D_flow-steady-state.h5
      0.24 Seconds to write HDF5 file.

 Finished Initialization


== RICHARDS FLOW ===============================================================
  0 2r: 1.50E-04 2x: 0.00E+00 2u: 0.00E+00 ir: 2.81E-05 iu: 0.00E+00 rsn:   0
  1 2r: 4.03E-05 2x: 8.35E+06 2u: 1.92E+03 ir: 6.79E-06 iu: 1.57E+02 rsn:   0
  2 2r: 1.71E-08 2x: 8.35E+06 2u: 3.59E+01 ir: 3.32E-09 iu: 4.16E+00 rsn:   0
  3 2r: 2.29E-11 2x: 8.35E+06 2u: 2.40E-01 ir: 1.61E-11 iu: 5.50E-03 rsn:   0
  4 2r: 1.86E-13 2x: 8.35E+06 2u: 6.30E-05 ir: 8.61E-15 iu: 1.48E-06 rsn: rtol

 Step      1 Time=  1.14155E-04 Dt=  1.14155E-04 [y] conv_reason: 3
  newton =   4 [       4] linear =   737 [       737] cuts =  0 [   0]
  --> SNES Linear/Non-Linear Iterations = 737 / 4
  --> SNES Residual: 0.186246E-12 0.279649E-16 0.860943E-14
  --> max change: dpmx=   1.5425E+02

== RICHARDS FLOW ===============================================================
  0 2r: 2.86E-05 2x: 0.00E+00 2u: 0.00E+00 ir: 3.14E-06 iu: 0.00E+00 rsn:   0
  1 2r: 3.57E-06 2x: 8.35E+06 2u: 2.64E+03 ir: 3.02E-06 iu: 9.11E+01 rsn:   0
  2 2r: 1.16E-09 2x: 8.35E+06 2u: 3.48E+00 ir: 4.73E-10 iu: 5.31E-01 rsn:   0
  3 2r: 1.93E-13 2x: 8.35E+06 2u: 3.28E-02 ir: 9.42E-15 iu: 7.09E-04 rsn: rtol

 Step      2 Time=  3.42466E-04 Dt=  2.28311E-04 [y] conv_reason: 3
  newton =   3 [       7] linear =   687 [      1424] cuts =  0 [   0]
  --> SNES Linear/Non-Linear Iterations = 687 / 3
  --> SNES Residual: 0.192965E-12 0.289738E-16 0.941510E-14
  --> max change: dpmx=   9.1025E+01

== RICHARDS FLOW ===============================================================
  0 2r: 1.97E-05 2x: 0.00E+00 2u: 0.00E+00 ir: 1.23E-06 iu: 0.00E+00 rsn:   0
  1 2r: 1.48E-06 2x: 8.35E+06 2u: 3.88E+03 ir: 5.28E-07 iu: 9.24E+01 rsn:   0
  2 2r: 7.16E-08 2x: 8.35E+06 2u: 3.25E+00 ir: 5.06E-08 iu: 2.27E-01 rsn:   0
  3 2r: 7.63E-13 2x: 8.35E+06 2u: 5.48E-02 ir: 8.02E-14 iu: 9.36E-04 rsn: stol

 Step      3 Time=  7.99087E-04 Dt=  4.56621E-04 [y] conv_reason: 4
  newton =   3 [      10] linear =   870 [      2294] cuts =  0 [   0]
  --> SNES Linear/Non-Linear Iterations = 870 / 3
  --> SNES Residual: 0.763292E-12 0.114608E-15 0.802421E-13
  --> max change: dpmx=   9.2375E+01

== RICHARDS FLOW ===============================================================
  0 2r: 1.45E-05 2x: 0.00E+00 2u: 0.00E+00 ir: 7.21E-07 iu: 0.00E+00 rsn:   0
  1 2r: 3.57E-06 2x: 8.36E+06 2u: 6.06E+03 ir: 8.16E-07 iu: 1.14E+02 rsn:   0
  2 2r: 1.78E-09 2x: 8.36E+06 2u: 5.80E+00 ir: 2.03E-10 iu: 3.82E-01 rsn:   0
  3 2r: 1.96E-13 2x: 8.36E+06 2u: 4.12E-01 ir: 8.58E-15 iu: 7.84E-03 rsn:   0
  4 2r: 1.91E-13 2x: 8.36E+06 2u: 7.21E-06 ir: 8.72E-15 iu: 9.54E-08 rsn: stol

 Step      4 Time=  1.71233E-03 Dt=  9.13242E-04 [y] conv_reason: 4
  newton =   4 [      14] linear =  1486 [      3780] cuts =  0 [   0]
  --> SNES Linear/Non-Linear Iterations = 1486 / 4
  --> SNES Residual: 0.191128E-12 0.286979E-16 0.872428E-14
  --> max change: dpmx=   1.1353E+02

== RICHARDS FLOW ===============================================================
  0 2r: 1.13E-05 2x: 0.00E+00 2u: 0.00E+00 ir: 4.55E-07 iu: 0.00E+00 rsn:   0
  1 2r: 1.02E-06 2x: 8.37E+06 2u: 1.10E+04 ir: 5.07E-07 iu: 1.59E+02 rsn:   0
  2 2r: 2.42E-10 2x: 8.37E+06 2u: 7.40E+00 ir: 1.93E-11 iu: 1.42E-01 rsn:   0
  3 2r: 1.97E-13 2x: 8.37E+06 2u: 7.60E-03 ir: 8.59E-15 iu: 1.71E-04 rsn: stol

 Step      5 Time=  3.53881E-03 Dt=  1.82648E-03 [y] conv_reason: 4
  newton =   3 [      17] linear =  1053 [      4833] cuts =  0 [   0]
  --> SNES Linear/Non-Linear Iterations = 1053 / 3
  --> SNES Residual: 0.196825E-12 0.295533E-16 0.859052E-14
  --> max change: dpmx=   1.5868E+02

== RICHARDS FLOW ===============================================================
  0 2r: 1.03E-05 2x: 0.00E+00 2u: 0.00E+00 ir: 3.21E-07 iu: 0.00E+00 rsn:   0
  1 2r: 8.55E-07 2x: 8.39E+06 2u: 2.14E+04 ir: 6.51E-07 iu: 2.68E+02 rsn:   0
  2 2r: 3.58E-10 2x: 8.39E+06 2u: 3.38E+01 ir: 8.33E-11 iu: 5.17E-01 rsn:   0
  3 2r: 1.89E-13 2x: 8.39E+06 2u: 1.44E-01 ir: 8.72E-15 iu: 2.56E-03 rsn:   0
  4 2r: 1.91E-13 2x: 8.39E+06 2u: 1.08E-05 ir: 8.33E-15 iu: 1.67E-07 rsn: stol

 Step      6 Time=  7.19178E-03 Dt=  3.65297E-03 [y] conv_reason: 4
  newton =   4 [      21] linear =  1472 [      6305] cuts =  0 [   0]
  --> SNES Linear/Non-Linear Iterations = 1472 / 4
  --> SNES Residual: 0.190596E-12 0.286181E-16 0.832545E-14
  --> max change: dpmx=   2.6817E+02

== RICHARDS FLOW ===============================================================
  0 2r: 9.97E-06 2x: 0.00E+00 2u: 0.00E+00 ir: 2.72E-07 iu: 0.00E+00 rsn:   0
  1 2r: 2.74E-06 2x: 8.43E+06 2u: 4.08E+04 ir: 2.23E-06 iu: 5.01E+02 rsn:   0
  2 2r: 3.33E-08 2x: 8.43E+06 2u: 1.68E+02 ir: 2.36E-08 iu: 2.34E+00 rsn:   0
  3 2r: 3.21E-13 2x: 8.43E+06 2u: 2.74E-01 ir: 2.92E-14 iu: 5.03E-03 rsn:   0
  4 2r: 1.90E-13 2x: 8.43E+06 2u: 9.77E-05 ir: 8.55E-15 iu: 1.89E-06 rsn: stol

 Step      7 Time=  1.44977E-02 Dt=  7.30594E-03 [y] conv_reason: 4
  newton =   4 [      25] linear =  1541 [      7846] cuts =  0 [   0]
  --> SNES Linear/Non-Linear Iterations = 1541 / 4
  --> SNES Residual: 0.190281E-12 0.285707E-16 0.854993E-14
  --> max change: dpmx=   5.0355E+02

== RICHARDS FLOW ===============================================================
  0 2r: 9.52E-06 2x: 0.00E+00 2u: 0.00E+00 ir: 2.55E-07 iu: 0.00E+00 rsn:   0
  1 2r: 2.29E-05 2x: 8.50E+06 2u: 6.66E+04 ir: 1.53E-05 iu: 8.21E+02 rsn:   0
  2 2r: 7.02E-08 2x: 8.50E+06 2u: 4.80E+02 ir: 4.91E-08 iu: 7.86E+00 rsn:   0
  3 2r: 3.30E-12 2x: 8.50E+06 2u: 2.13E+00 ir: 2.71E-13 iu: 3.26E-02 rsn:   0
  4 2r: 2.04E-13 2x: 8.50E+06 2u: 3.81E-03 ir: 9.91E-15 iu: 5.16E-05 rsn: stol

 Step      8 Time=  2.73973E-02 Dt=  1.28995E-02 [y] conv_reason: 4
  newton =   4 [      29] linear =  1821 [      9667] cuts =  0 [   0]
  --> SNES Linear/Non-Linear Iterations = 1821 / 4
  --> SNES Residual: 0.204109E-12 0.306470E-16 0.990861E-14
  --> max change: dpmx=   8.2648E+02

 --> appending to hdf5 output file: 2D_flow-steady-state.h5
      0.05 Seconds to write HDF5 file.

== RICHARDS FLOW ===============================================================
  0 2r: 8.82E-06 2x: 0.00E+00 2u: 0.00E+00 ir: 2.34E-07 iu: 0.00E+00 rsn:   0
  1 2r: 7.64E-06 2x: 8.56E+06 2u: 6.90E+04 ir: 6.40E-06 iu: 8.49E+02 rsn:   0
  2 2r: 9.51E-08 2x: 8.57E+06 2u: 2.81E+02 ir: 5.97E-08 iu: 4.25E+00 rsn:   0
  3 2r: 1.04E-12 2x: 8.57E+06 2u: 3.31E+00 ir: 5.41E-13 iu: 4.65E-02 rsn:   0
  4 2r: 2.01E-13 2x: 8.57E+06 2u: 1.72E-03 ir: 9.61E-15 iu: 2.24E-05 rsn: stol

 Step      9 Time=  4.20091E-02 Dt=  1.46119E-02 [y] conv_reason: 4
  newton =   4 [      33] linear =  1528 [     11195] cuts =  0 [   0]
  --> SNES Linear/Non-Linear Iterations = 1528 / 4
  --> SNES Residual: 0.200503E-12 0.301055E-16 0.960596E-14
  --> max change: dpmx=   8.5280E+02

== RICHARDS FLOW ===============================================================
  0 2r: 8.02E-06 2x: 0.00E+00 2u: 0.00E+00 ir: 2.16E-07 iu: 0.00E+00 rsn:   0
  1 2r: 7.14E-06 2x: 8.62E+06 2u: 5.57E+04 ir: 5.67E-06 iu: 6.86E+02 rsn:   0
  2 2r: 2.46E-08 2x: 8.62E+06 2u: 4.14E+02 ir: 1.97E-08 iu: 5.54E+00 rsn:   0
  3 2r: 4.74E-13 2x: 8.62E+06 2u: 1.87E+00 ir: 3.56E-14 iu: 2.59E-02 rsn:   0
 -> Cut time step: snes= -3 icut= 1 [1] t= 4.20091E-02 dt= 6.39269E-03 [y]
Newton solver reason: SNES_DIVERGED_LINEAR_SOLVE
Linear solver reason: KSP_DIVERGED_BREAKDOWN
  0 2r: 8.02E-06 2x: 0.00E+00 2u: 0.00E+00 ir: 2.16E-07 iu: 0.00E+00 rsn:   0
  1 2r: 1.16E-06 2x: 8.59E+06 2u: 2.91E+04 ir: 9.33E-07 iu: 3.59E+02 rsn:   0
  2 2r: 3.30E-10 2x: 8.59E+06 2u: 1.09E+02 ir: 2.39E-10 iu: 1.43E+00 rsn:   0
  3 2r: 2.03E-13 2x: 8.59E+06 2u: 6.06E-03 ir: 9.67E-15 iu: 1.57E-04 rsn: stol

 Step     10 Time=  4.84018E-02 Dt=  6.39269E-03 [y] conv_reason: 4
  newton =   6 [      39] linear =  2990 [     14185] cuts =  1 [   1]
  --> SNES Linear/Non-Linear Iterations = 1337 / 3
  --> SNES Residual: 0.202980E-12 0.304775E-16 0.967312E-14
  --> max change: dpmx=   3.5987E+02

== RICHARDS FLOW ===============================================================
  0 2r: 7.72E-06 2x: 0.00E+00 2u: 0.00E+00 ir: 2.08E-07 iu: 0.00E+00 rsn:   0
  1 2r: 5.24E-06 2x: 8.62E+06 2u: 2.80E+04 ir: 3.65E-06 iu: 3.45E+02 rsn:   0
  2 2r: 1.03E-08 2x: 8.62E+06 2u: 1.26E+02 ir: 7.47E-09 iu: 1.77E+00 rsn:   0
  3 2r: 2.23E-13 2x: 8.62E+06 2u: 6.86E-02 ir: 1.33E-14 iu: 1.24E-03 rsn: stol

 Step     11 Time=  5.47945E-02 Dt=  6.39269E-03 [y] conv_reason: 4
  newton =   3 [      42] linear =  1698 [     15883] cuts =  0 [   1]
  --> SNES Linear/Non-Linear Iterations = 1698 / 3
  --> SNES Residual: 0.223329E-12 0.335329E-16 0.132922E-13
  --> max change: dpmx=   3.4655E+02

 --> appending to hdf5 output file: 2D_flow-steady-state.h5
      0.07 Seconds to write HDF5 file.

== RICHARDS FLOW ===============================================================
  0 2r: 7.42E-06 2x: 0.00E+00 2u: 0.00E+00 ir: 1.99E-07 iu: 0.00E+00 rsn:   0
  1 2r: 2.49E-06 2x: 8.65E+06 2u: 2.70E+04 ir: 1.85E-06 iu: 3.32E+02 rsn:   0
  2 2r: 1.38E-08 2x: 8.65E+06 2u: 6.09E+01 ir: 9.79E-09 iu: 9.77E-01 rsn:   0
  3 2r: 2.25E-13 2x: 8.65E+06 2u: 6.49E-02 ir: 1.51E-14 iu: 1.17E-03 rsn: stol

 Step     12 Time=  6.11872E-02 Dt=  6.39269E-03 [y] conv_reason: 4
  newton =   3 [      45] linear =  1221 [     17104] cuts =  0 [   1]
  --> SNES Linear/Non-Linear Iterations = 1221 / 3
  --> SNES Residual: 0.225224E-12 0.338174E-16 0.150802E-13
  --> max change: dpmx=   3.3270E+02

== RICHARDS FLOW ===============================================================
  0 2r: 7.13E-06 2x: 0.00E+00 2u: 0.00E+00 ir: 1.91E-07 iu: 0.00E+00 rsn:   0
  1 2r: 9.06E-07 2x: 8.67E+06 2u: 2.58E+04 ir: 7.41E-07 iu: 3.17E+02 rsn:   0
  2 2r: 1.80E-10 2x: 8.67E+06 2u: 3.19E+01 ir: 5.91E-11 iu: 4.49E-01 rsn:   0
  3 2r: 2.27E-13 2x: 8.67E+06 2u: 7.93E-02 ir: 1.35E-14 iu: 1.42E-03 rsn: stol

 Step     13 Time=  6.75799E-02 Dt=  6.39269E-03 [y] conv_reason: 4
  newton =   3 [      48] linear =  1033 [     18137] cuts =  0 [   1]
  --> SNES Linear/Non-Linear Iterations = 1033 / 3
  --> SNES Residual: 0.227445E-12 0.341510E-16 0.135125E-13
  --> max change: dpmx=   3.1772E+02

== RICHARDS FLOW ===============================================================
  0 2r: 6.80E-06 2x: 0.00E+00 2u: 0.00E+00 ir: 1.84E-07 iu: 0.00E+00 rsn:   0
  1 2r: 7.86E-07 2x: 8.70E+06 2u: 2.46E+04 ir: 6.40E-07 iu: 3.03E+02 rsn:   0
  2 2r: 1.82E-10 2x: 8.70E+06 2u: 4.77E+01 ir: 7.79E-11 iu: 6.42E-01 rsn:   0
 -> Cut time step: snes= -3 icut= 1 [2] t= 6.75799E-02 dt= 3.19635E-03 [y]
Newton solver reason: SNES_DIVERGED_LINEAR_SOLVE
Linear solver reason: KSP_DIVERGED_BREAKDOWN
  0 2r: 6.80E-06 2x: 0.00E+00 2u: 0.00E+00 ir: 1.84E-07 iu: 0.00E+00 rsn:   0
  1 2r: 2.14E-07 2x: 8.69E+06 2u: 1.26E+04 ir: 1.66E-07 iu: 1.55E+02 rsn:   0
  2 2r: 2.76E-11 2x: 8.69E+06 2u: 1.20E+01 ir: 4.84E-12 iu: 1.57E-01 rsn:   0
  3 2r: 2.27E-13 2x: 8.69E+06 2u: 6.31E-03 ir: 1.38E-14 iu: 1.27E-04 rsn: stol

 Step     14 Time=  7.07763E-02 Dt=  3.19635E-03 [y] conv_reason: 4
  newton =   5 [      53] linear =  2258 [     20395] cuts =  1 [   2]
  --> SNES Linear/Non-Linear Iterations = 983 / 3
  --> SNES Residual: 0.227465E-12 0.341539E-16 0.138358E-13
  --> max change: dpmx=   1.5538E+02

== RICHARDS FLOW ===============================================================
  0 2r: 6.65E-06 2x: 0.00E+00 2u: 0.00E+00 ir: 1.80E-07 iu: 0.00E+00 rsn:   0
  1 2r: 2.02E-07 2x: 8.70E+06 2u: 1.23E+04 ir: 1.54E-07 iu: 1.52E+02 rsn:   0
  2 2r: 2.00E-11 2x: 8.70E+06 2u: 1.38E+01 ir: 5.04E-12 iu: 1.96E-01 rsn:   0
  3 2r: 2.26E-13 2x: 8.70E+06 2u: 7.65E-04 ir: 1.40E-14 iu: 1.38E-05 rsn: stol

 Step     15 Time=  7.39726E-02 Dt=  3.19635E-03 [y] conv_reason: 4
  newton =   3 [      56] linear =  1094 [     21489] cuts =  0 [   2]
  --> SNES Linear/Non-Linear Iterations = 1094 / 3
  --> SNES Residual: 0.225559E-12 0.338677E-16 0.139844E-13
  --> max change: dpmx=   1.5194E+02

== RICHARDS FLOW ===============================================================
  0 2r: 6.50E-06 2x: 0.00E+00 2u: 0.00E+00 ir: 1.76E-07 iu: 0.00E+00 rsn:   0
  1 2r: 1.90E-07 2x: 8.71E+06 2u: 1.21E+04 ir: 1.43E-07 iu: 1.48E+02 rsn:   0
  2 2r: 4.92E-11 2x: 8.71E+06 2u: 1.55E+01 ir: 5.65E-12 iu: 2.00E-01 rsn:   0
  3 2r: 2.24E-13 2x: 8.71E+06 2u: 9.98E-03 ir: 1.44E-14 iu: 1.89E-04 rsn: stol

 Step     16 Time=  7.71689E-02 Dt=  3.19635E-03 [y] conv_reason: 4
  newton =   3 [      59] linear =  1047 [     22536] cuts =  0 [   2]
  --> SNES Linear/Non-Linear Iterations = 1047 / 3
  --> SNES Residual: 0.224053E-12 0.336415E-16 0.143779E-13
  --> max change: dpmx=   1.4862E+02

== RICHARDS FLOW ===============================================================
  0 2r: 6.35E-06 2x: 0.00E+00 2u: 0.00E+00 ir: 1.72E-07 iu: 0.00E+00 rsn:   0
  1 2r: 1.79E-07 2x: 8.72E+06 2u: 1.18E+04 ir: 1.33E-07 iu: 1.45E+02 rsn:   0
  2 2r: 3.73E-11 2x: 8.72E+06 2u: 1.70E+01 ir: 5.65E-12 iu: 2.18E-01 rsn:   0
  3 2r: 2.25E-13 2x: 8.72E+06 2u: 9.26E-03 ir: 1.46E-14 iu: 1.96E-04 rsn: stol

 Step     17 Time=  8.03653E-02 Dt=  3.19635E-03 [y] conv_reason: 4
  newton =   3 [      62] linear =  1106 [     23642] cuts =  0 [   2]
  --> SNES Linear/Non-Linear Iterations = 1106 / 3
  --> SNES Residual: 0.224671E-12 0.337344E-16 0.145805E-13
  --> max change: dpmx=   1.4540E+02

== RICHARDS FLOW ===============================================================
  0 2r: 6.21E-06 2x: 0.00E+00 2u: 0.00E+00 ir: 1.69E-07 iu: 0.00E+00 rsn:   0
  1 2r: 6.42E-08 2x: 8.73E+06 2u: 6.67E+03 ir: 4.11E-08 iu: 8.20E+01 rsn:   0
  2 2r: 1.88E-11 2x: 8.73E+06 2u: 6.06E+00 ir: 1.30E-12 iu: 8.63E-02 rsn:   0
  3 2r: 2.26E-13 2x: 8.73E+06 2u: 3.31E-03 ir: 1.57E-14 iu: 6.06E-05 rsn: stol

 Step     18 Time=  8.21918E-02 Dt=  1.82648E-03 [y] conv_reason: 4
  newton =   3 [      65] linear =  1002 [     24644] cuts =  0 [   2]
  --> SNES Linear/Non-Linear Iterations = 1002 / 3
  --> SNES Residual: 0.225873E-12 0.339149E-16 0.156509E-13
  --> max change: dpmx=   8.2114E+01

 --> appending to hdf5 output file: 2D_flow-steady-state.h5
      0.04 Seconds to write HDF5 file.

== RICHARDS FLOW ===============================================================
  0 2r: 6.13E-06 2x: 0.00E+00 2u: 0.00E+00 ir: 1.67E-07 iu: 0.00E+00 rsn:   0
  1 2r: 1.64E-07 2x: 8.74E+06 2u: 1.14E+04 ir: 1.18E-07 iu: 1.40E+02 rsn:   0
  2 2r: 9.58E-12 2x: 8.74E+06 2u: 1.90E+01 ir: 5.83E-12 iu: 2.55E-01 rsn:   0
  3 2r: 2.32E-13 2x: 8.74E+06 2u: 2.53E-04 ir: 1.26E-14 iu: 5.14E-06 rsn: stol

 Step     19 Time=  8.53881E-02 Dt=  3.19635E-03 [y] conv_reason: 4
  newton =   3 [      68] linear =   987 [     25631] cuts =  0 [   2]
  --> SNES Linear/Non-Linear Iterations = 987 / 3
  --> SNES Residual: 0.232436E-12 0.349003E-16 0.125603E-13
  --> max change: dpmx=   1.4055E+02

== RICHARDS FLOW ===============================================================
  0 2r: 5.99E-06 2x: 0.00E+00 2u: 0.00E+00 ir: 1.63E-07 iu: 0.00E+00 rsn:   0
  1 2r: 5.42E-07 2x: 8.76E+06 2u: 2.18E+04 ir: 4.23E-07 iu: 2.68E+02 rsn:   0
  2 2r: 1.21E-10 2x: 8.76E+06 2u: 7.65E+01 ir: 7.77E-11 iu: 9.71E-01 rsn:   0
  3 2r: 2.29E-13 2x: 8.76E+06 2u: 2.30E-02 ir: 1.33E-14 iu: 4.15E-04 rsn: stol

 Step     20 Time=  9.17808E-02 Dt=  6.39269E-03 [y] conv_reason: 4
  newton =   3 [      71] linear =  1005 [     26636] cuts =  0 [   2]
  --> SNES Linear/Non-Linear Iterations = 1005 / 3
  --> SNES Residual: 0.229274E-12 0.344255E-16 0.133275E-13
  --> max change: dpmx=   2.6901E+02

== RICHARDS FLOW ===============================================================
  0 2r: 5.73E-06 2x: 0.00E+00 2u: 0.00E+00 ir: 1.55E-07 iu: 0.00E+00 rsn:   0
  1 2r: 9.19E-06 2x: 8.80E+06 2u: 3.98E+04 ir: 6.54E-06 iu: 4.90E+02 rsn:   0
  2 2r: 1.38E-09 2x: 8.80E+06 2u: 2.52E+02 ir: 7.58E-10 iu: 3.63E+00 rsn:   0
  3 2r: 3.37E-13 2x: 8.80E+06 2u: 6.25E-02 ir: 2.33E-14 iu: 1.11E-03 rsn: stol

 Step     21 Time=  1.04566E-01 Dt=  1.27854E-02 [y] conv_reason: 4
  newton =   3 [      74] linear =  1098 [     27734] cuts =  0 [   2]
  --> SNES Linear/Non-Linear Iterations = 1098 / 3
  --> SNES Residual: 0.336601E-12 0.505408E-16 0.233220E-13
  --> max change: dpmx=   4.9326E+02

== RICHARDS FLOW ===============================================================
  0 2r: 5.24E-06 2x: 0.00E+00 2u: 0.00E+00 ir: 1.41E-07 iu: 0.00E+00 rsn:   0
  1 2r: 2.73E-07 2x: 8.82E+06 2u: 1.52E+04 ir: 2.16E-07 iu: 1.87E+02 rsn:   0
  2 2r: 1.96E-11 2x: 8.82E+06 2u: 1.19E+01 ir: 7.59E-12 iu: 1.74E-01 rsn:   0
  3 2r: 2.45E-13 2x: 8.82E+06 2u: 6.34E-03 ir: 1.71E-14 iu: 1.23E-04 rsn: stol

 Step     22 Time=  1.09589E-01 Dt=  5.02283E-03 [y] conv_reason: 4
  newton =   3 [      77] linear =  1118 [     28852] cuts =  0 [   2]
  --> SNES Linear/Non-Linear Iterations = 1118 / 3
  --> SNES Residual: 0.245049E-12 0.367942E-16 0.171225E-13
  --> max change: dpmx=   1.8706E+02

 --> appending to hdf5 output file: 2D_flow-steady-state.h5
      0.04 Seconds to write HDF5 file.

== RICHARDS FLOW ===============================================================
  0 2r: 5.06E-06 2x: 0.00E+00 2u: 0.00E+00 ir: 1.37E-07 iu: 0.00E+00 rsn:   0
  1 2r: 5.29E-06 2x: 8.88E+06 2u: 6.77E+04 ir: 4.40E-06 iu: 8.33E+02 rsn:   0
  2 2r: 6.66E-08 2x: 8.88E+06 2u: 3.63E+02 ir: 4.70E-08 iu: 4.69E+00 rsn:   0
  3 2r: 1.08E-12 2x: 8.88E+06 2u: 9.79E-01 ir: 1.46E-13 iu: 1.33E-02 rsn:   0
  4 2r: 2.43E-13 2x: 8.88E+06 2u: 4.92E-03 ir: 1.54E-14 iu: 6.31E-05 rsn: stol

 Step     23 Time=  1.36986E-01 Dt=  2.73973E-02 [y] conv_reason: 4
  newton =   4 [      81] linear =  1378 [     30230] cuts =  0 [   2]
  --> SNES Linear/Non-Linear Iterations = 1378 / 4
  --> SNES Residual: 0.242821E-12 0.364596E-16 0.153891E-13
  --> max change: dpmx=   8.3706E+02

 --> appending to hdf5 output file: 2D_flow-steady-state.h5
      0.15 Seconds to write HDF5 file.

== RICHARDS FLOW ===============================================================
  0 2r: 4.14E-06 2x: 0.00E+00 2u: 0.00E+00 ir: 1.13E-07 iu: 0.00E+00 rsn:   0
  1 2r: 3.76E-06 2x: 8.94E+06 2u: 5.58E+04 ir: 3.11E-06 iu: 6.87E+02 rsn:   0
  2 2r: 3.35E-08 2x: 8.94E+06 2u: 4.74E+02 ir: 2.22E-08 iu: 5.98E+00 rsn:   0
  3 2r: 8.41E-13 2x: 8.94E+06 2u: 7.75E-01 ir: 8.69E-14 iu: 1.05E-02 rsn:   0
  4 2r: 2.55E-13 2x: 8.94E+06 2u: 2.22E-03 ir: 1.70E-14 iu: 2.94E-05 rsn: stol

 Step     24 Time=  1.64384E-01 Dt=  2.73973E-02 [y] conv_reason: 4
  newton =   4 [      85] linear =  1458 [     31688] cuts =  0 [   2]
  --> SNES Linear/Non-Linear Iterations = 1458 / 4
  --> SNES Residual: 0.255233E-12 0.383232E-16 0.169765E-13
  --> max change: dpmx=   6.9245E+02

 --> appending to hdf5 output file: 2D_flow-steady-state.h5
      0.01 Seconds to write HDF5 file.

== RICHARDS FLOW ===============================================================
  0 2r: 3.41E-06 2x: 0.00E+00 2u: 0.00E+00 ir: 9.33E-08 iu: 0.00E+00 rsn:   0
  1 2r: 3.87E-06 2x: 8.98E+06 2u: 4.61E+04 ir: 2.50E-06 iu: 5.67E+02 rsn:   0
  2 2r: 2.63E-07 2x: 8.98E+06 2u: 1.20E+02 ir: 1.86E-07 iu: 2.01E+00 rsn:   0
  3 2r: 3.80E-13 2x: 8.98E+06 2u: 5.72E-01 ir: 3.42E-14 iu: 7.67E-03 rsn:   0
  4 2r: 2.62E-13 2x: 8.98E+06 2u: 1.12E-03 ir: 1.65E-14 iu: 1.47E-05 rsn: stol

 Step     25 Time=  1.91781E-01 Dt=  2.73973E-02 [y] conv_reason: 4
  newton =   4 [      89] linear =  1650 [     33338] cuts =  0 [   2]
  --> SNES Linear/Non-Linear Iterations = 1650 / 4
  --> SNES Residual: 0.262499E-12 0.394142E-16 0.164997E-13
  --> max change: dpmx=   5.6839E+02

 --> appending to hdf5 output file: 2D_flow-steady-state.h5
      0.04 Seconds to write HDF5 file.

== RICHARDS FLOW ===============================================================
  0 2r: 2.79E-06 2x: 0.00E+00 2u: 0.00E+00 ir: 7.64E-08 iu: 0.00E+00 rsn:   0
  1 2r: 1.25E-06 2x: 9.02E+06 2u: 3.73E+04 ir: 1.03E-06 iu: 4.59E+02 rsn:   0
  2 2r: 4.66E-10 2x: 9.02E+06 2u: 1.32E+02 ir: 3.56E-10 iu: 1.69E+00 rsn:   0
  3 2r: 2.71E-13 2x: 9.02E+06 2u: 3.08E-01 ir: 1.68E-14 iu: 4.14E-03 rsn:   0
  4 2r: 2.64E-13 2x: 9.02E+06 2u: 6.08E-05 ir: 1.62E-14 iu: 8.62E-07 rsn: stol

 Step     26 Time=  2.19178E-01 Dt=  2.73973E-02 [y] conv_reason: 4
  newton =   4 [      93] linear =  1409 [     34747] cuts =  0 [   2]
  --> SNES Linear/Non-Linear Iterations = 1409 / 4
  --> SNES Residual: 0.264255E-12 0.396780E-16 0.162378E-13
  --> max change: dpmx=   4.6079E+02

 --> appending to hdf5 output file: 2D_flow-steady-state.h5
      0.11 Seconds to write HDF5 file.

== RICHARDS FLOW ===============================================================
  0 2r: 2.25E-06 2x: 0.00E+00 2u: 0.00E+00 ir: 6.23E-08 iu: 0.00E+00 rsn:   0
  1 2r: 7.53E-07 2x: 9.05E+06 2u: 3.02E+04 ir: 6.11E-07 iu: 3.72E+02 rsn:   0
  2 2r: 2.65E-10 2x: 9.05E+06 2u: 1.25E+02 ir: 1.95E-10 iu: 1.57E+00 rsn:   0
  3 2r: 2.64E-13 2x: 9.05E+06 2u: 1.71E-01 ir: 1.58E-14 iu: 2.32E-03 rsn:   0
  4 2r: 2.60E-13 2x: 9.05E+06 2u: 4.87E-06 ir: 1.62E-14 iu: 7.23E-08 rsn: stol

 Step     27 Time=  2.46575E-01 Dt=  2.73973E-02 [y] conv_reason: 4
  newton =   4 [      97] linear =  1507 [     36254] cuts =  0 [   2]
  --> SNES Linear/Non-Linear Iterations = 1507 / 4
  --> SNES Residual: 0.259957E-12 0.390326E-16 0.161907E-13
  --> max change: dpmx=   3.7345E+02

 --> appending to hdf5 output file: 2D_flow-steady-state.h5
      0.03 Seconds to write HDF5 file.

== RICHARDS FLOW ===============================================================
  0 2r: 1.82E-06 2x: 0.00E+00 2u: 0.00E+00 ir: 5.05E-08 iu: 0.00E+00 rsn:   0
  1 2r: 4.57E-07 2x: 9.08E+06 2u: 2.45E+04 ir: 3.65E-07 iu: 3.01E+02 rsn:   0
  2 2r: 4.66E-09 2x: 9.08E+06 2u: 1.02E+02 ir: 3.10E-09 iu: 1.28E+00 rsn:   0
  3 2r: 2.71E-13 2x: 9.08E+06 2u: 1.63E-02 ir: 1.60E-14 iu: 2.32E-04 rsn: stol

 Step     28 Time=  2.73973E-01 Dt=  2.73973E-02 [y] conv_reason: 4
  newton =   3 [     100] linear =  1204 [     37458] cuts =  0 [   2]
  --> SNES Linear/Non-Linear Iterations = 1204 / 3
  --> SNES Residual: 0.270830E-12 0.406652E-16 0.160287E-13
  --> max change: dpmx=   3.0219E+02

 --> appending to hdf5 output file: 2D_flow-steady-state.h5
      0.10 Seconds to write HDF5 file.

== RICHARDS FLOW ===============================================================
  0 2r: 1.47E-06 2x: 0.00E+00 2u: 0.00E+00 ir: 4.08E-08 iu: 0.00E+00 rsn:   0
  1 2r: 2.97E-07 2x: 9.10E+06 2u: 1.98E+04 ir: 2.35E-07 iu: 2.43E+02 rsn:   0
  2 2r: 5.62E-10 2x: 9.10E+06 2u: 7.79E+01 ir: 3.96E-10 iu: 9.72E-01 rsn:   0
  3 2r: 2.67E-13 2x: 9.10E+06 2u: 6.65E-02 ir: 1.71E-14 iu: 8.99E-04 rsn: stol

 Step     29 Time=  3.01370E-01 Dt=  2.73973E-02 [y] conv_reason: 4
  newton =   3 [     103] linear =  1094 [     38552] cuts =  0 [   2]
  --> SNES Linear/Non-Linear Iterations = 1094 / 3
  --> SNES Residual: 0.267124E-12 0.401088E-16 0.171003E-13
  --> max change: dpmx=   2.4392E+02

 --> appending to hdf5 output file: 2D_flow-steady-state.h5
      0.01 Seconds to write HDF5 file.

== RICHARDS FLOW ===============================================================
  0 2r: 1.18E-06 2x: 0.00E+00 2u: 0.00E+00 ir: 3.28E-08 iu: 0.00E+00 rsn:   0
  1 2r: 1.02E-06 2x: 9.11E+06 2u: 1.59E+04 ir: 9.54E-07 iu: 1.96E+02 rsn:   0
  2 2r: 4.76E-11 2x: 9.11E+06 2u: 4.65E+01 ir: 2.94E-11 iu: 7.00E-01 rsn:   0
  3 2r: 2.76E-13 2x: 9.11E+06 2u: 1.89E-02 ir: 1.68E-14 iu: 2.81E-04 rsn: stol

 Step     30 Time=  3.28767E-01 Dt=  2.73973E-02 [y] conv_reason: 4
  newton =   3 [     106] linear =  1203 [     39755] cuts =  0 [   2]
  --> SNES Linear/Non-Linear Iterations = 1203 / 3
  --> SNES Residual: 0.276193E-12 0.414704E-16 0.167622E-13
  --> max change: dpmx=   1.9618E+02

 --> appending to hdf5 output file: 2D_flow-steady-state.h5
      0.13 Seconds to write HDF5 file.

== RICHARDS FLOW ===============================================================
  0 2r: 9.51E-07 2x: 0.00E+00 2u: 0.00E+00 ir: 2.62E-08 iu: 0.00E+00 rsn:   0
  1 2r: 6.39E-07 2x: 9.12E+06 2u: 1.28E+04 ir: 5.60E-07 iu: 1.57E+02 rsn:   0
  2 2r: 9.22E-08 2x: 9.12E+06 2u: 4.38E+00 ir: 6.52E-08 iu: 7.00E-02 rsn:   0
  3 2r: 3.57E-13 2x: 9.12E+06 2u: 1.95E-02 ir: 2.23E-14 iu: 2.75E-04 rsn: stol

 Step     31 Time=  3.56164E-01 Dt=  2.73973E-02 [y] conv_reason: 4
  newton =   3 [     109] linear =  1038 [     40793] cuts =  0 [   2]
  --> SNES Linear/Non-Linear Iterations = 1038 / 3
  --> SNES Residual: 0.357112E-12 0.536204E-16 0.222944E-13
  --> max change: dpmx=   1.5676E+02

 --> appending to hdf5 output file: 2D_flow-steady-state.h5
      0.14 Seconds to write HDF5 file.

== RICHARDS FLOW ===============================================================
  0 2r: 7.59E-07 2x: 0.00E+00 2u: 0.00E+00 ir: 2.10E-08 iu: 0.00E+00 rsn:   0
  1 2r: 7.49E-08 2x: 9.13E+06 2u: 1.01E+04 ir: 6.06E-08 iu: 1.24E+02 rsn:   0
  2 2r: 6.22E-12 2x: 9.13E+06 2u: 8.37E+00 ir: 1.41E-12 iu: 1.07E-01 rsn:   0
  3 2r: 2.76E-13 2x: 9.13E+06 2u: 1.07E-02 ir: 1.67E-14 iu: 1.47E-04 rsn: stol

 Step     32 Time=  3.83562E-01 Dt=  2.73973E-02 [y] conv_reason: 4
  newton =   3 [     112] linear =   951 [     41744] cuts =  0 [   2]
  --> SNES Linear/Non-Linear Iterations = 951 / 3
  --> SNES Residual: 0.276276E-12 0.414828E-16 0.166531E-13
  --> max change: dpmx=   1.2452E+02

 --> appending to hdf5 output file: 2D_flow-steady-state.h5
      0.04 Seconds to write HDF5 file.

== RICHARDS FLOW ===============================================================
  0 2r: 6.02E-07 2x: 0.00E+00 2u: 0.00E+00 ir: 1.68E-08 iu: 0.00E+00 rsn:   0
  1 2r: 4.60E-08 2x: 9.14E+06 2u: 8.04E+03 ir: 3.72E-08 iu: 9.88E+01 rsn:   0
  2 2r: 3.80E-11 2x: 9.14E+06 2u: 6.01E+00 ir: 2.69E-11 iu: 7.60E-02 rsn:   0
  3 2r: 2.76E-13 2x: 9.14E+06 2u: 1.26E-03 ir: 1.70E-14 iu: 1.76E-05 rsn: stol

 Step     33 Time=  4.10959E-01 Dt=  2.73973E-02 [y] conv_reason: 4
  newton =   3 [     115] linear =   956 [     42700] cuts =  0 [   2]
  --> SNES Linear/Non-Linear Iterations = 956 / 3
  --> SNES Residual: 0.275668E-12 0.413916E-16 0.169624E-13
  --> max change: dpmx=   9.8835E+01

 --> appending to hdf5 output file: 2D_flow-steady-state.h5
      0.03 Seconds to write HDF5 file.

== RICHARDS FLOW ===============================================================
  0 2r: 4.78E-07 2x: 0.00E+00 2u: 0.00E+00 ir: 1.33E-08 iu: 0.00E+00 rsn:   0
  1 2r: 3.05E-08 2x: 9.15E+06 2u: 6.38E+03 ir: 2.29E-08 iu: 7.84E+01 rsn:   0
  2 2r: 1.09E-12 2x: 9.15E+06 2u: 4.11E+00 ir: 2.51E-13 iu: 5.27E-02 rsn:   0
  3 2r: 2.78E-13 2x: 9.15E+06 2u: 1.73E-03 ir: 1.56E-14 iu: 2.42E-05 rsn: stol

 Step     34 Time=  4.38356E-01 Dt=  2.73973E-02 [y] conv_reason: 4
  newton =   3 [     118] linear =  1109 [     43809] cuts =  0 [   2]
  --> SNES Linear/Non-Linear Iterations = 1109 / 3
  --> SNES Residual: 0.278019E-12 0.417446E-16 0.156255E-13
  --> max change: dpmx=   7.8402E+01

 --> appending to hdf5 output file: 2D_flow-steady-state.h5
      0.07 Seconds to write HDF5 file.

== RICHARDS FLOW ===============================================================
  0 2r: 3.79E-07 2x: 0.00E+00 2u: 0.00E+00 ir: 1.06E-08 iu: 0.00E+00 rsn:   0
  1 2r: 1.95E-08 2x: 9.15E+06 2u: 5.05E+03 ir: 1.42E-08 iu: 6.21E+01 rsn:   0
  2 2r: 4.63E-13 2x: 9.15E+06 2u: 2.79E+00 ir: 1.04E-13 iu: 3.51E-02 rsn:   0
  3 2r: 2.84E-13 2x: 9.15E+06 2u: 5.50E-04 ir: 1.73E-14 iu: 7.69E-06 rsn: stol

 Step     35 Time=  4.65753E-01 Dt=  2.73973E-02 [y] conv_reason: 4
  newton =   3 [     121] linear =   980 [     44789] cuts =  0 [   2]
  --> SNES Linear/Non-Linear Iterations = 980 / 3
  --> SNES Residual: 0.284132E-12 0.426624E-16 0.172801E-13
  --> max change: dpmx=   6.2157E+01

 --> appending to hdf5 output file: 2D_flow-steady-state.h5
      0.09 Seconds to write HDF5 file.

== RICHARDS FLOW ===============================================================
  0 2r: 3.00E-07 2x: 0.00E+00 2u: 0.00E+00 ir: 8.40E-09 iu: 0.00E+00 rsn:   0
  1 2r: 1.12E-08 2x: 9.16E+06 2u: 4.01E+03 ir: 8.77E-09 iu: 4.92E+01 rsn:   0
  2 2r: 5.59E-13 2x: 9.16E+06 2u: 1.83E+00 ir: 4.94E-14 iu: 2.34E-02 rsn:   0
  3 2r: 2.78E-13 2x: 9.16E+06 2u: 1.14E-03 ir: 1.63E-14 iu: 1.54E-05 rsn: stol

 Step     36 Time=  4.93151E-01 Dt=  2.73973E-02 [y] conv_reason: 4
  newton =   3 [     124] linear =  1426 [     46215] cuts =  0 [   2]
  --> SNES Linear/Non-Linear Iterations = 1426 / 3
  --> SNES Residual: 0.277543E-12 0.416731E-16 0.162502E-13
  --> max change: dpmx=   4.9253E+01

 --> appending to hdf5 output file: 2D_flow-steady-state.h5
      0.13 Seconds to write HDF5 file.

== RICHARDS FLOW ===============================================================
  0 2r: 2.38E-07 2x: 0.00E+00 2u: 0.00E+00 ir: 6.66E-09 iu: 0.00E+00 rsn:   0
  1 2r: 9.17E-09 2x: 9.16E+06 2u: 3.17E+03 ir: 5.44E-09 iu: 3.90E+01 rsn:   0
  2 2r: 3.71E-13 2x: 9.16E+06 2u: 1.18E+00 ir: 2.75E-14 iu: 1.53E-02 rsn:   0
  3 2r: 2.81E-13 2x: 9.16E+06 2u: 6.45E-04 ir: 1.70E-14 iu: 8.59E-06 rsn: stol

 Step     37 Time=  5.20548E-01 Dt=  2.73973E-02 [y] conv_reason: 4
  newton =   3 [     127] linear =   998 [     47213] cuts =  0 [   2]
  --> SNES Linear/Non-Linear Iterations = 998 / 3
  --> SNES Residual: 0.281452E-12 0.422601E-16 0.169962E-13
  --> max change: dpmx=   3.9010E+01

 --> appending to hdf5 output file: 2D_flow-steady-state.h5
      0.60 Seconds to write HDF5 file.

== RICHARDS FLOW ===============================================================
  0 2r: 1.88E-07 2x: 0.00E+00 2u: 0.00E+00 ir: 5.27E-09 iu: 0.00E+00 rsn:   0
  1 2r: 6.22E-09 2x: 9.16E+06 2u: 2.51E+03 ir: 3.38E-09 iu: 3.09E+01 rsn:   0
  2 2r: 2.87E-13 2x: 9.16E+06 2u: 7.66E-01 ir: 1.62E-14 iu: 9.86E-03 rsn:   0
  3 2r: 2.80E-13 2x: 9.16E+06 2u: 1.16E-04 ir: 1.67E-14 iu: 1.61E-06 rsn: stol

 Step     38 Time=  5.47945E-01 Dt=  2.73973E-02 [y] conv_reason: 4
  newton =   3 [     130] linear =  1007 [     48220] cuts =  0 [   2]
  --> SNES Linear/Non-Linear Iterations = 1007 / 3
  --> SNES Residual: 0.280318E-12 0.420897E-16 0.167180E-13
  --> max change: dpmx=   3.0886E+01

 --> appending to hdf5 output file: 2D_flow-steady-state.h5
      0.20 Seconds to write HDF5 file.

== RICHARDS FLOW ===============================================================
  0 2r: 1.49E-07 2x: 0.00E+00 2u: 0.00E+00 ir: 4.18E-09 iu: 0.00E+00 rsn:   0
  1 2r: 4.24E-09 2x: 9.16E+06 2u: 1.99E+03 ir: 2.10E-09 iu: 2.44E+01 rsn:   0
  2 2r: 6.38E-12 2x: 9.16E+06 2u: 5.07E-01 ir: 4.50E-12 iu: 6.43E-03 rsn:   0
  3 2r: 2.82E-13 2x: 9.16E+06 2u: 3.41E-04 ir: 1.75E-14 iu: 4.79E-06 rsn: stol

 Step     39 Time=  5.75342E-01 Dt=  2.73973E-02 [y] conv_reason: 4
  newton =   3 [     133] linear =   953 [     49173] cuts =  0 [   2]
  --> SNES Linear/Non-Linear Iterations = 953 / 3
  --> SNES Residual: 0.282461E-12 0.424116E-16 0.175417E-13
  --> max change: dpmx=   2.4446E+01

 --> appending to hdf5 output file: 2D_flow-steady-state.h5
      0.82 Seconds to write HDF5 file.

== RICHARDS FLOW ===============================================================
  0 2r: 1.18E-07 2x: 0.00E+00 2u: 0.00E+00 ir: 3.31E-09 iu: 0.00E+00 rsn:   0
  1 2r: 2.71E-09 2x: 9.17E+06 2u: 1.57E+03 ir: 1.31E-09 iu: 1.93E+01 rsn:   0
  2 2r: 3.20E-13 2x: 9.17E+06 2u: 3.19E-01 ir: 1.72E-14 iu: 3.97E-03 rsn:   0
  3 2r: 2.78E-13 2x: 9.17E+06 2u: 5.32E-04 ir: 1.62E-14 iu: 6.97E-06 rsn: stol

 Step     40 Time=  6.02740E-01 Dt=  2.73973E-02 [y] conv_reason: 4
  newton =   3 [     136] linear =  1114 [     50287] cuts =  0 [   2]
  --> SNES Linear/Non-Linear Iterations = 1114 / 3
  --> SNES Residual: 0.277622E-12 0.416850E-16 0.162392E-13
  --> max change: dpmx=   1.9343E+01

 --> appending to hdf5 output file: 2D_flow-steady-state.h5
      0.31 Seconds to write HDF5 file.

== RICHARDS FLOW ===============================================================
  0 2r: 9.32E-08 2x: 0.00E+00 2u: 0.00E+00 ir: 2.62E-09 iu: 0.00E+00 rsn:   0
  1 2r: 2.73E-09 2x: 9.17E+06 2u: 1.24E+03 ir: 1.07E-09 iu: 1.53E+01 rsn:   0
  2 2r: 1.61E-11 2x: 9.17E+06 2u: 2.00E-01 ir: 1.13E-11 iu: 2.57E-03 rsn:   0
  3 2r: 2.85E-13 2x: 9.17E+06 2u: 9.07E-05 ir: 1.65E-14 iu: 1.21E-06 rsn: stol

 Step     41 Time=  6.30137E-01 Dt=  2.73973E-02 [y] conv_reason: 4
  newton =   3 [     139] linear =   973 [     51260] cuts =  0 [   2]
  --> SNES Linear/Non-Linear Iterations = 973 / 3
  --> SNES Residual: 0.285011E-12 0.427945E-16 0.165105E-13
  --> max change: dpmx=   1.5303E+01

 --> appending to hdf5 output file: 2D_flow-steady-state.h5
      0.82 Seconds to write HDF5 file.

== RICHARDS FLOW ===============================================================
  0 2r: 7.37E-08 2x: 0.00E+00 2u: 0.00E+00 ir: 2.07E-09 iu: 0.00E+00 rsn:   0
  1 2r: 1.93E-09 2x: 9.17E+06 2u: 9.85E+02 ir: 7.86E-10 iu: 1.21E+01 rsn:   0
  2 2r: 2.83E-13 2x: 9.17E+06 2u: 1.29E-01 ir: 1.73E-14 iu: 1.66E-03 rsn:   0
  3 2r: 2.81E-13 2x: 9.17E+06 2u: 1.22E-05 ir: 1.68E-14 iu: 1.85E-07 rsn: stol

 Step     42 Time=  6.57534E-01 Dt=  2.73973E-02 [y] conv_reason: 4
  newton =   3 [     142] linear =  1035 [     52295] cuts =  0 [   2]
  --> SNES Linear/Non-Linear Iterations = 1035 / 3
  --> SNES Residual: 0.280938E-12 0.421829E-16 0.168485E-13
  --> max change: dpmx=   1.2104E+01

 --> appending to hdf5 output file: 2D_flow-steady-state.h5
      0.18 Seconds to write HDF5 file.

== RICHARDS FLOW ===============================================================
  0 2r: 5.83E-08 2x: 0.00E+00 2u: 0.00E+00 ir: 1.64E-09 iu: 0.00E+00 rsn:   0
  1 2r: 8.63E-09 2x: 9.17E+06 2u: 7.79E+02 ir: 8.04E-10 iu: 9.57E+00 rsn:   0
  2 2r: 4.68E-12 2x: 9.17E+06 2u: 8.17E-02 ir: 3.30E-12 iu: 1.04E-03 rsn: stol

 Step     43 Time=  6.84932E-01 Dt=  2.73973E-02 [y] conv_reason: 4
  newton =   2 [     144] linear =   669 [     52964] cuts =  0 [   2]
  --> SNES Linear/Non-Linear Iterations = 669 / 2
  --> SNES Residual: 0.467891E-11 0.702539E-15 0.330271E-11
  --> max change: dpmx=   9.5731E+00

 --> appending to hdf5 output file: 2D_flow-steady-state.h5
      0.09 Seconds to write HDF5 file.

== RICHARDS FLOW ===============================================================
  0 2r: 4.61E-08 2x: 0.00E+00 2u: 0.00E+00 ir: 1.30E-09 iu: 0.00E+00 rsn:   0
  1 2r: 1.89E-09 2x: 9.17E+06 2u: 6.16E+02 ir: 7.24E-10 iu: 7.57E+00 rsn:   0
  2 2r: 2.68E-12 2x: 9.17E+06 2u: 5.15E-02 ir: 1.85E-12 iu: 6.80E-04 rsn: stol

 Step     44 Time=  7.12329E-01 Dt=  2.73973E-02 [y] conv_reason: 4
  newton =   2 [     146] linear =  2231 [     55195] cuts =  0 [   2]
  --> SNES Linear/Non-Linear Iterations = 2231 / 2
  --> SNES Residual: 0.268393E-11 0.402992E-15 0.185026E-11
  --> max change: dpmx=   7.5703E+00

 --> appending to hdf5 output file: 2D_flow-steady-state.h5
      0.12 Seconds to write HDF5 file.

== RICHARDS FLOW ===============================================================
  0 2r: 3.65E-08 2x: 0.00E+00 2u: 0.00E+00 ir: 1.02E-09 iu: 0.00E+00 rsn:   0
  1 2r: 7.30E-09 2x: 9.17E+06 2u: 4.87E+02 ir: 5.64E-10 iu: 5.99E+00 rsn:   0
  2 2r: 2.80E-13 2x: 9.17E+06 2u: 3.24E-02 ir: 1.62E-14 iu: 4.29E-04 rsn: stol

 Step     45 Time=  7.39726E-01 Dt=  2.73973E-02 [y] conv_reason: 4
  newton =   2 [     148] linear =   817 [     56012] cuts =  0 [   2]
  --> SNES Linear/Non-Linear Iterations = 817 / 2
  --> SNES Residual: 0.279597E-12 0.419815E-16 0.162181E-13
  --> max change: dpmx=   5.9860E+00

 --> appending to hdf5 output file: 2D_flow-steady-state.h5
      0.05 Seconds to write HDF5 file.

== RICHARDS FLOW ===============================================================
  0 2r: 2.88E-08 2x: 0.00E+00 2u: 0.00E+00 ir: 8.10E-10 iu: 0.00E+00 rsn:   0
  1 2r: 1.54E-09 2x: 9.17E+06 2u: 3.85E+02 ir: 3.89E-10 iu: 4.73E+00 rsn:   0
  2 2r: 2.72E-13 2x: 9.17E+06 2u: 1.93E-02 ir: 1.56E-14 iu: 2.66E-04 rsn: stol

 Step     46 Time=  7.67123E-01 Dt=  2.73973E-02 [y] conv_reason: 4
  newton =   2 [     150] linear =   687 [     56699] cuts =  0 [   2]
  --> SNES Linear/Non-Linear Iterations = 687 / 2
  --> SNES Residual: 0.272158E-12 0.408646E-16 0.155683E-13
  --> max change: dpmx=   4.7329E+00

 --> appending to hdf5 output file: 2D_flow-steady-state.h5
      0.05 Seconds to write HDF5 file.

== RICHARDS FLOW ===============================================================
  0 2r: 2.28E-08 2x: 0.00E+00 2u: 0.00E+00 ir: 6.40E-10 iu: 0.00E+00 rsn:   0
  1 2r: 4.34E-10 2x: 9.17E+06 2u: 3.04E+02 ir: 2.18E-10 iu: 3.74E+00 rsn:   0
  2 2r: 2.74E-13 2x: 9.17E+06 2u: 1.33E-02 ir: 1.55E-14 iu: 1.80E-04 rsn: stol

 Step     47 Time=  7.94521E-01 Dt=  2.73973E-02 [y] conv_reason: 4
  newton =   2 [     152] linear =   802 [     57501] cuts =  0 [   2]
  --> SNES Linear/Non-Linear Iterations = 802 / 2
  --> SNES Residual: 0.273587E-12 0.410791E-16 0.155421E-13
  --> max change: dpmx=   3.7419E+00

 --> appending to hdf5 output file: 2D_flow-steady-state.h5
      0.06 Seconds to write HDF5 file.

== RICHARDS FLOW ===============================================================
  0 2r: 1.80E-08 2x: 0.00E+00 2u: 0.00E+00 ir: 5.06E-10 iu: 0.00E+00 rsn:   0
  1 2r: 1.54E-09 2x: 9.17E+06 2u: 2.41E+02 ir: 2.14E-10 iu: 2.96E+00 rsn:   0
  2 2r: 2.75E-13 2x: 9.17E+06 2u: 7.75E-03 ir: 1.60E-14 iu: 1.02E-04 rsn: stol

 Step     48 Time=  8.21918E-01 Dt=  2.73973E-02 [y] conv_reason: 4
  newton =   2 [     154] linear =   699 [     58200] cuts =  0 [   2]
  --> SNES Linear/Non-Linear Iterations = 699 / 2
  --> SNES Residual: 0.275414E-12 0.413534E-16 0.159665E-13
  --> max change: dpmx=   2.9583E+00

 --> appending to hdf5 output file: 2D_flow-steady-state.h5
      0.02 Seconds to write HDF5 file.

== RICHARDS FLOW ===============================================================
  0 2r: 1.42E-08 2x: 0.00E+00 2u: 0.00E+00 ir: 4.00E-10 iu: 0.00E+00 rsn:   0
  1 2r: 3.28E-10 2x: 9.17E+06 2u: 1.90E+02 ir: 1.48E-10 iu: 2.34E+00 rsn:   0
  2 2r: 2.72E-13 2x: 9.17E+06 2u: 6.03E-03 ir: 1.64E-14 iu: 1.02E-04 rsn: stol

 Step     49 Time=  8.49315E-01 Dt=  2.73973E-02 [y] conv_reason: 4
  newton =   2 [     156] linear =   626 [     58826] cuts =  0 [   2]
  --> SNES Linear/Non-Linear Iterations = 626 / 2
  --> SNES Residual: 0.271904E-12 0.408264E-16 0.164030E-13
  --> max change: dpmx=   2.3387E+00

 --> appending to hdf5 output file: 2D_flow-steady-state.h5
      0.06 Seconds to write HDF5 file.

== RICHARDS FLOW ===============================================================
  0 2r: 1.13E-08 2x: 0.00E+00 2u: 0.00E+00 ir: 3.16E-10 iu: 0.00E+00 rsn:   0
  1 2r: 1.56E-09 2x: 9.17E+06 2u: 1.50E+02 ir: 1.17E-10 iu: 1.85E+00 rsn:   0
  2 2r: 2.78E-13 2x: 9.17E+06 2u: 3.82E-03 ir: 1.61E-14 iu: 6.60E-05 rsn: stol

 Step     50 Time=  8.76712E-01 Dt=  2.73973E-02 [y] conv_reason: 4
  newton =   2 [     158] linear =   645 [     59471] cuts =  0 [   2]
  --> SNES Linear/Non-Linear Iterations = 645 / 2
  --> SNES Residual: 0.278228E-12 0.417759E-16 0.160679E-13
  --> max change: dpmx=   1.8488E+00

 --> appending to hdf5 output file: 2D_flow-steady-state.h5
      0.05 Seconds to write HDF5 file.

== RICHARDS FLOW ===============================================================
  0 2r: 8.90E-09 2x: 0.00E+00 2u: 0.00E+00 ir: 2.50E-10 iu: 0.00E+00 rsn:   0
  1 2r: 3.23E-10 2x: 9.17E+06 2u: 1.19E+02 ir: 6.77E-11 iu: 1.46E+00 rsn:   0
  2 2r: 2.87E-13 2x: 9.17E+06 2u: 1.93E-03 ir: 1.58E-14 iu: 2.85E-05 rsn: stol

 Step     51 Time=  9.04110E-01 Dt=  2.73973E-02 [y] conv_reason: 4
  newton =   2 [     160] linear =   650 [     60121] cuts =  0 [   2]
  --> SNES Linear/Non-Linear Iterations = 650 / 2
  --> SNES Residual: 0.287074E-12 0.431042E-16 0.157549E-13
  --> max change: dpmx=   1.4616E+00

 --> appending to hdf5 output file: 2D_flow-steady-state.h5
      0.01 Seconds to write HDF5 file.

== RICHARDS FLOW ===============================================================
  0 2r: 7.04E-09 2x: 0.00E+00 2u: 0.00E+00 ir: 1.98E-10 iu: 0.00E+00 rsn:   0
  1 2r: 8.37E-11 2x: 9.17E+06 2u: 9.40E+01 ir: 3.76E-11 iu: 1.16E+00 rsn:   0
  2 2r: 2.75E-13 2x: 9.17E+06 2u: 1.81E-03 ir: 1.71E-14 iu: 3.62E-05 rsn: stol

 Step     52 Time=  9.31507E-01 Dt=  2.73973E-02 [y] conv_reason: 4
  newton =   2 [     162] linear =   628 [     60749] cuts =  0 [   2]
  --> SNES Linear/Non-Linear Iterations = 628 / 2
  --> SNES Residual: 0.275212E-12 0.413231E-16 0.171452E-13
  --> max change: dpmx=   1.1554E+00

 --> appending to hdf5 output file: 2D_flow-steady-state.h5
      0.02 Seconds to write HDF5 file.

== RICHARDS FLOW ===============================================================
  0 2r: 5.56E-09 2x: 0.00E+00 2u: 0.00E+00 ir: 1.56E-10 iu: 0.00E+00 rsn:   0
  1 2r: 5.33E-10 2x: 9.17E+06 2u: 7.43E+01 ir: 3.24E-11 iu: 9.13E-01 rsn:   0
  2 2r: 2.76E-13 2x: 9.17E+06 2u: 7.51E-04 ir: 1.67E-14 iu: 1.20E-05 rsn: stol

 Step     53 Time=  9.58904E-01 Dt=  2.73973E-02 [y] conv_reason: 4
  newton =   2 [     164] linear =   659 [     61408] cuts =  0 [   2]
  --> SNES Linear/Non-Linear Iterations = 659 / 2
  --> SNES Residual: 0.275691E-12 0.413950E-16 0.166675E-13
  --> max change: dpmx=   9.1331E-01

 --> appending to hdf5 output file: 2D_flow-steady-state.h5
      0.04 Seconds to write HDF5 file.

== RICHARDS FLOW ===============================================================
  0 2r: 4.40E-09 2x: 0.00E+00 2u: 0.00E+00 ir: 1.24E-10 iu: 0.00E+00 rsn:   0
  1 2r: 2.48E-10 2x: 9.17E+06 2u: 5.87E+01 ir: 1.63E-11 iu: 7.22E-01 rsn:   0
  2 2r: 2.72E-13 2x: 9.17E+06 2u: 7.33E-04 ir: 1.60E-14 iu: 1.48E-05 rsn: stol

 Step     54 Time=  9.86301E-01 Dt=  2.73973E-02 [y] conv_reason: 4
  newton =   2 [     166] linear =   794 [     62202] cuts =  0 [   2]
  --> SNES Linear/Non-Linear Iterations = 794 / 2
  --> SNES Residual: 0.272486E-12 0.409138E-16 0.160413E-13
  --> max change: dpmx=   7.2197E-01

 --> appending to hdf5 output file: 2D_flow-steady-state.h5
      0.01 Seconds to write HDF5 file.

== RICHARDS FLOW ===============================================================
  0 2r: 3.48E-09 2x: 0.00E+00 2u: 0.00E+00 ir: 9.77E-11 iu: 0.00E+00 rsn:   0
  1 2r: 5.33E-11 2x: 9.17E+06 2u: 2.59E+01 ir: 4.16E-12 iu: 3.19E-01 rsn:   0
  2 2r: 2.74E-13 2x: 9.17E+06 2u: 1.75E-04 ir: 1.62E-14 iu: 3.69E-06 rsn: stol

 Step     55 Time=  1.00000E+00 Dt=  1.36986E-02 [y] conv_reason: 4
  newton =   2 [     168] linear =   674 [     62876] cuts =  0 [   2]
  --> SNES Linear/Non-Linear Iterations = 674 / 2
  --> SNES Residual: 0.274263E-12 0.411806E-16 0.161639E-13
  --> max change: dpmx=   3.1874E-01

 --> appending to hdf5 output file: 2D_flow-steady-state.h5
      0.10 Seconds to write HDF5 file.

== RICHARDS FLOW ===============================================================
  0 2r: 3.07E-09 2x: 0.00E+00 2u: 0.00E+00 ir: 8.63E-11 iu: 0.00E+00 rsn:   0
  1 2r: 2.51E-11 2x: 9.17E+06 2u: 3.88E+01 ir: 2.50E-12 iu: 4.77E-01 rsn:   0
  2 2r: 2.71E-13 2x: 9.17E+06 2u: 1.79E-04 ir: 1.55E-14 iu: 3.87E-06 rsn: stol

 Step     56 Time=  1.02557E+00 Dt=  2.55708E-02 [y] conv_reason: 4
  newton =   2 [     170] linear =   649 [     63525] cuts =  0 [   2]
  --> SNES Linear/Non-Linear Iterations = 649 / 2
  --> SNES Residual: 0.271258E-12 0.407295E-16 0.155164E-13
  --> max change: dpmx=   4.7699E-01

== RICHARDS FLOW ===============================================================
  0 2r: 2.46E-09 2x: 0.00E+00 2u: 0.00E+00 ir: 6.92E-11 iu: 0.00E+00 rsn:   0
  1 2r: 1.91E-12 2x: 9.17E+06 2u: 5.19E+01 ir: 1.39E-12 iu: 6.38E-01 rsn:   0
  2 2r: 2.79E-13 2x: 9.17E+06 2u: 4.12E-04 ir: 1.62E-14 iu: 7.16E-06 rsn: stol

 Step     57 Time=  1.07671E+00 Dt=  5.11416E-02 [y] conv_reason: 4
  newton =   2 [     172] linear =   768 [     64293] cuts =  0 [   2]
  --> SNES Linear/Non-Linear Iterations = 768 / 2
  --> SNES Residual: 0.278807E-12 0.418629E-16 0.161932E-13
  --> max change: dpmx=   6.3819E-01

== RICHARDS FLOW ===============================================================
  0 2r: 1.65E-09 2x: 0.00E+00 2u: 0.00E+00 ir: 4.63E-11 iu: 0.00E+00 rsn:   0
  1 2r: 1.77E-12 2x: 9.17E+06 2u: 5.22E+01 ir: 1.41E-12 iu: 6.42E-01 rsn:   0
  2 2r: 2.69E-13 2x: 9.17E+06 2u: 2.81E-04 ir: 1.73E-14 iu: 4.13E-06 rsn: stol

 Step     58 Time=  1.17900E+00 Dt=  1.02283E-01 [y] conv_reason: 4
  newton =   2 [     174] linear =   663 [     64956] cuts =  0 [   2]
  --> SNES Linear/Non-Linear Iterations = 663 / 2
  --> SNES Residual: 0.269454E-12 0.404585E-16 0.172583E-13
  --> max change: dpmx=   6.4152E-01

== RICHARDS FLOW ===============================================================
  0 2r: 8.27E-10 2x: 0.00E+00 2u: 0.00E+00 ir: 2.33E-11 iu: 0.00E+00 rsn:   0
  1 2r: 6.43E-13 2x: 9.17E+06 2u: 2.53E+01 ir: 3.30E-13 iu: 3.10E-01 rsn:   0
  2 2r: 2.72E-13 2x: 9.17E+06 2u: 1.61E-04 ir: 1.63E-14 iu: 3.13E-06 rsn: stol

 Step     59 Time=  1.27397E+00 Dt=  9.49772E-02 [y] conv_reason: 4
  newton =   2 [     176] linear =   694 [     65650] cuts =  0 [   2]
  --> SNES Linear/Non-Linear Iterations = 694 / 2
  --> SNES Residual: 0.272344E-12 0.408926E-16 0.162616E-13
  --> max change: dpmx=   3.1043E-01

 --> appending to hdf5 output file: 2D_flow-steady-state.h5
      0.01 Seconds to write HDF5 file.

== RICHARDS FLOW ===============================================================
  0 2r: 4.31E-10 2x: 0.00E+00 2u: 0.00E+00 ir: 1.21E-11 iu: 0.00E+00 rsn:   0
  1 2r: 4.24E-13 2x: 9.17E+06 2u: 1.83E+01 ir: 1.76E-13 iu: 2.24E-01 rsn:   0
  2 2r: 2.73E-13 2x: 9.17E+06 2u: 7.35E-05 ir: 1.61E-14 iu: 1.50E-06 rsn: stol

 Step     60 Time=  1.47854E+00 Dt=  2.04566E-01 [y] conv_reason: 4
  newton =   2 [     178] linear =   662 [     66312] cuts =  0 [   2]
  --> SNES Linear/Non-Linear Iterations = 662 / 2
  --> SNES Residual: 0.272805E-12 0.409616E-16 0.160944E-13
  --> max change: dpmx=   2.2442E-01

== RICHARDS FLOW ===============================================================
  0 2r: 1.45E-10 2x: 0.00E+00 2u: 0.00E+00 ir: 4.07E-12 iu: 0.00E+00 rsn:   0
  1 2r: 2.76E-13 2x: 9.17E+06 2u: 3.71E+00 ir: 1.66E-14 iu: 4.56E-02 rsn:   0
  2 2r: 2.72E-13 2x: 9.17E+06 2u: 1.05E-06 ir: 1.70E-14 iu: 1.73E-08 rsn: stol

 Step     61 Time=  1.54795E+00 Dt=  6.94064E-02 [y] conv_reason: 4
  newton =   2 [     180] linear =   671 [     66983] cuts =  0 [   2]
  --> SNES Linear/Non-Linear Iterations = 671 / 2
  --> SNES Residual: 0.272466E-12 0.409109E-16 0.170457E-13
  --> max change: dpmx=   4.5551E-02

 --> appending to hdf5 output file: 2D_flow-steady-state.h5
      0.03 Seconds to write HDF5 file.

== RICHARDS FLOW ===============================================================
  0 2r: 8.66E-11 2x: 0.00E+00 2u: 0.00E+00 ir: 2.43E-12 iu: 0.00E+00 rsn:   0
  1 2r: 2.64E-13 2x: 9.17E+06 2u: 4.01E+00 ir: 1.54E-14 iu: 4.92E-02 rsn:   0
  2 2r: 2.76E-13 2x: 9.17E+06 2u: 1.01E-05 ir: 1.70E-14 iu: 2.03E-07 rsn: stol

 Step     62 Time=  1.82192E+00 Dt=  2.73973E-01 [y] conv_reason: 4
  newton =   2 [     182] linear =   718 [     67701] cuts =  0 [   2]
  --> SNES Linear/Non-Linear Iterations = 718 / 2
  --> SNES Residual: 0.276305E-12 0.414872E-16 0.169732E-13
  --> max change: dpmx=   4.9249E-02

 --> appending to hdf5 output file: 2D_flow-steady-state.h5
      0.04 Seconds to write HDF5 file.

== RICHARDS FLOW ===============================================================
  0 2r: 2.37E-11 2x: 0.00E+00 2u: 0.00E+00 ir: 6.67E-13 iu: 0.00E+00 rsn:   0
  1 2r: 2.78E-13 2x: 9.17E+06 2u: 9.56E-01 ir: 1.54E-14 iu: 1.18E-02 rsn:   0
  2 2r: 2.77E-13 2x: 9.17E+06 2u: 7.51E-07 ir: 1.58E-14 iu: 1.55E-08 rsn: stol

 Step     63 Time=  2.00000E+00 Dt=  1.78082E-01 [y] conv_reason: 4
  newton =   2 [     184] linear =   687 [     68388] cuts =  0 [   2]
  --> SNES Linear/Non-Linear Iterations = 687 / 2
  --> SNES Residual: 0.277234E-12 0.416267E-16 0.158279E-13
  --> max change: dpmx=   1.1756E-02

 --> appending to hdf5 output file: 2D_flow-steady-state.h5
      0.03 Seconds to write HDF5 file.

== RICHARDS FLOW ===============================================================
  0 2r: 8.71E-12 2x: 0.00E+00 2u: 0.00E+00 ir: 2.45E-13 iu: 0.00E+00 rsn:   0
  1 2r: 2.75E-13 2x: 9.17E+06 2u: 4.43E-01 ir: 1.73E-14 iu: 5.45E-03 rsn:   0
  2 2r: 2.73E-13 2x: 9.17E+06 2u: 3.03E-08 ir: 1.73E-14 iu: 9.69E-10 rsn: stol

 Step     64 Time=  2.40913E+00 Dt=  4.09132E-01 [y] conv_reason: 4
  newton =   2 [     186] linear =   764 [     69152] cuts =  0 [   2]
  --> SNES Linear/Non-Linear Iterations = 764 / 2
  --> SNES Residual: 0.273486E-12 0.410639E-16 0.172818E-13
  --> max change: dpmx=   5.4465E-03

== RICHARDS FLOW ===============================================================
  0 2r: 1.78E-12 2x: 0.00E+00 2u: 0.00E+00 ir: 5.02E-14 iu: 0.00E+00 rsn:   0
  1 2r: 2.74E-13 2x: 9.17E+06 2u: 9.53E-02 ir: 1.72E-14 iu: 1.17E-03 rsn:   0
  2 2r: 2.79E-13 2x: 9.17E+06 2u: 2.71E-07 ir: 1.74E-14 iu: 5.20E-09 rsn: stol

 Step     65 Time=  3.00000E+00 Dt=  5.90868E-01 [y] conv_reason: 4
  newton =   2 [     188] linear =   981 [     70133] cuts =  0 [   2]
  --> SNES Linear/Non-Linear Iterations = 981 / 2
  --> SNES Residual: 0.278698E-12 0.418466E-16 0.173624E-13
  --> max change: dpmx=   1.1710E-03

 --> appending to hdf5 output file: 2D_flow-steady-state.h5
      0.12 Seconds to write HDF5 file.

== RICHARDS FLOW ===============================================================
  0 2r: 3.82E-13 2x: 0.00E+00 2u: 0.00E+00 ir: 1.74E-14 iu: 0.00E+00 rsn:   0
  1 2r: 2.75E-13 2x: 9.17E+06 2u: 1.48E-02 ir: 1.69E-14 iu: 1.82E-04 rsn: stol

 Step     66 Time=  3.81826E+00 Dt=  8.18265E-01 [y] conv_reason: 4
  newton =   1 [     189] linear =   324 [     70457] cuts =  0 [   2]
  --> SNES Linear/Non-Linear Iterations = 324 / 1
  --> SNES Residual: 0.274671E-12 0.412419E-16 0.168602E-13
  --> max change: dpmx=   1.8185E-04

== RICHARDS FLOW ===============================================================
  0 2r: 2.76E-13 2x: 0.00E+00 2u: 0.00E+00 ir: 1.69E-14 iu: 0.00E+00 rsn:   0
  1 2r: 2.75E-13 2x: 9.17E+06 2u: 1.19E-03 ir: 1.56E-14 iu: 1.46E-05 rsn: stol

 Step     67 Time=  4.00000E+00 Dt=  1.81735E-01 [y] conv_reason: 4
  newton =   1 [     190] linear =   346 [     70803] cuts =  0 [   2]
  --> SNES Linear/Non-Linear Iterations = 346 / 1
  --> SNES Residual: 0.274559E-12 0.412251E-16 0.156449E-13
  --> max change: dpmx=   1.4642E-05

 --> appending to hdf5 output file: 2D_flow-steady-state.h5
      0.10 Seconds to write HDF5 file.

== RICHARDS FLOW ===============================================================
  0 2r: 2.75E-13 2x: 0.00E+00 2u: 0.00E+00 ir: 1.56E-14 iu: 0.00E+00 rsn:   0
  1 2r: 2.77E-13 2x: 9.17E+06 2u: 6.14E-04 ir: 1.69E-14 iu: 7.55E-06 rsn: stol

 Step     68 Time=  5.00000E+00 Dt=  1.00000E+00 [y] conv_reason: 4
  newton =   1 [     191] linear =   295 [     71098] cuts =  0 [   2]
  --> SNES Linear/Non-Linear Iterations = 295 / 1
  --> SNES Residual: 0.276779E-12 0.415584E-16 0.169269E-13
  --> max change: dpmx=   7.5464E-06

 --> appending to hdf5 output file: 2D_flow-steady-state.h5
      0.40 Seconds to write HDF5 file.

== RICHARDS FLOW ===============================================================
  0 2r: 2.77E-13 2x: 0.00E+00 2u: 0.00E+00 ir: 1.69E-14 iu: 0.00E+00 rsn:   0
  1 2r: 2.71E-13 2x: 9.17E+06 2u: 5.75E-05 ir: 1.67E-14 iu: 7.07E-07 rsn: stol

 Step     69 Time=  6.00000E+00 Dt=  1.00000E+00 [y] conv_reason: 4
  newton =   1 [     192] linear =   312 [     71410] cuts =  0 [   2]
  --> SNES Linear/Non-Linear Iterations = 312 / 1
  --> SNES Residual: 0.270763E-12 0.406551E-16 0.166571E-13
  --> max change: dpmx=   7.0686E-07

 --> appending to hdf5 output file: 2D_flow-steady-state.h5
      0.14 Seconds to write HDF5 file.

== RICHARDS FLOW ===============================================================
  0 2r: 2.71E-13 2x: 0.00E+00 2u: 0.00E+00 ir: 1.67E-14 iu: 0.00E+00 rsn:   0
  1 2r: 2.78E-13 2x: 9.17E+06 2u: 5.39E-06 ir: 1.71E-14 iu: 6.62E-08 rsn: stol

 Step     70 Time=  7.00000E+00 Dt=  1.00000E+00 [y] conv_reason: 4
  newton =   1 [     193] linear =   324 [     71734] cuts =  0 [   2]
  --> SNES Linear/Non-Linear Iterations = 324 / 1
  --> SNES Residual: 0.278269E-12 0.417821E-16 0.171160E-13
  --> max change: dpmx=   6.6240E-08

 --> appending to hdf5 output file: 2D_flow-steady-state.h5
      0.05 Seconds to write HDF5 file.

== RICHARDS FLOW ===============================================================
  0 2r: 2.78E-13 2x: 0.00E+00 2u: 0.00E+00 ir: 1.71E-14 iu: 0.00E+00 rsn:   0
  1 2r: 2.73E-13 2x: 9.17E+06 2u: 5.00E-07 ir: 1.76E-14 iu: 6.16E-09 rsn: stol

 Step     71 Time=  8.00000E+00 Dt=  1.00000E+00 [y] conv_reason: 4
  newton =   1 [     194] linear =   337 [     72071] cuts =  0 [   2]
  --> SNES Linear/Non-Linear Iterations = 337 / 1
  --> SNES Residual: 0.272815E-12 0.409632E-16 0.176493E-13
  --> max change: dpmx=   6.1700E-09

 --> appending to hdf5 output file: 2D_flow-steady-state.h5
      0.09 Seconds to write HDF5 file.

== RICHARDS FLOW ===============================================================
  0 2r: 2.73E-13 2x: 0.00E+00 2u: 0.00E+00 ir: 1.76E-14 iu: 0.00E+00 rsn:   0
  1 2r: 2.79E-13 2x: 9.17E+06 2u: 5.02E-08 ir: 1.65E-14 iu: 6.31E-10 rsn: stol

 Step     72 Time=  9.00000E+00 Dt=  1.00000E+00 [y] conv_reason: 4
  newton =   1 [     195] linear =   390 [     72461] cuts =  0 [   2]
  --> SNES Linear/Non-Linear Iterations = 390 / 1
  --> SNES Residual: 0.278942E-12 0.418832E-16 0.164549E-13
  --> max change: dpmx=   6.4028E-10

 --> appending to hdf5 output file: 2D_flow-steady-state.h5
      0.05 Seconds to write HDF5 file.

== RICHARDS FLOW ===============================================================
  0 2r: 2.79E-13 2x: 0.00E+00 2u: 0.00E+00 ir: 1.65E-14 iu: 0.00E+00 rsn:   0
  1 2r: 2.78E-13 2x: 9.17E+06 2u: 4.22E-10 ir: 1.67E-14 iu: 1.46E-11 rsn: stol

 Step     73 Time=  1.00000E+01 Dt=  1.00000E+00 [y] conv_reason: 4
  newton =   1 [     196] linear =    76 [     72537] cuts =  0 [   2]
  --> SNES Linear/Non-Linear Iterations = 76 / 1
  --> SNES Residual: 0.277941E-12 0.417329E-16 0.166571E-13
  --> max change: dpmx=   2.9104E-11

 --> appending to hdf5 output file: 2D_flow-steady-state.h5
      0.03 Seconds to write HDF5 file.

== RICHARDS FLOW ===============================================================
  0 2r: 2.78E-13 2x: 0.00E+00 2u: 0.00E+00 ir: 1.67E-14 iu: 0.00E+00 rsn:   0
  1 2r: 2.79E-13 2x: 9.17E+06 2u: 4.22E-10 ir: 1.67E-14 iu: 1.46E-11 rsn: stol

 Step     74 Time=  1.10000E+01 Dt=  1.00000E+00 [y] conv_reason: 4
  newton =   1 [     197] linear =    80 [     72617] cuts =  0 [   2]
  --> SNES Linear/Non-Linear Iterations = 80 / 1
  --> SNES Residual: 0.278875E-12 0.418732E-16 0.166571E-13
  --> max change: dpmx=   2.9104E-11

 --> appending to hdf5 output file: 2D_flow-steady-state.h5
      0.03 Seconds to write HDF5 file.

== RICHARDS FLOW ===============================================================
  0 2r: 2.79E-13 2x: 0.00E+00 2u: 0.00E+00 ir: 1.67E-14 iu: 0.00E+00 rsn:   0
  1 2r: 2.79E-13 2x: 9.17E+06 2u: 4.22E-10 ir: 1.67E-14 iu: 1.47E-11 rsn: stol

 Step     75 Time=  1.20000E+01 Dt=  1.00000E+00 [y] conv_reason: 4
  newton =   1 [     198] linear =    85 [     72702] cuts =  0 [   2]
  --> SNES Linear/Non-Linear Iterations = 85 / 1
  --> SNES Residual: 0.279116E-12 0.419093E-16 0.166571E-13
  --> max change: dpmx=   2.9104E-11

 --> appending to hdf5 output file: 2D_flow-steady-state.h5
      0.01 Seconds to write HDF5 file.

== RICHARDS FLOW ===============================================================
  0 2r: 2.79E-13 2x: 0.00E+00 2u: 0.00E+00 ir: 1.67E-14 iu: 0.00E+00 rsn:   0
  1 2r: 2.78E-13 2x: 9.17E+06 2u: 4.22E-10 ir: 1.67E-14 iu: 1.47E-11 rsn: stol

 Step     76 Time=  1.30000E+01 Dt=  1.00000E+00 [y] conv_reason: 4
  newton =   1 [     199] linear =    82 [     72784] cuts =  0 [   2]
  --> SNES Linear/Non-Linear Iterations = 82 / 1
  --> SNES Residual: 0.278155E-12 0.417650E-16 0.166571E-13
  --> max change: dpmx=   2.9104E-11

 --> appending to hdf5 output file: 2D_flow-steady-state.h5
      0.01 Seconds to write HDF5 file.

== RICHARDS FLOW ===============================================================
  0 2r: 2.78E-13 2x: 0.00E+00 2u: 0.00E+00 ir: 1.67E-14 iu: 0.00E+00 rsn:   0
  1 2r: 2.76E-13 2x: 9.17E+06 2u: 4.22E-10 ir: 1.67E-14 iu: 1.47E-11 rsn: stol

 Step     77 Time=  1.40000E+01 Dt=  1.00000E+00 [y] conv_reason: 4
  newton =   1 [     200] linear =    59 [     72843] cuts =  0 [   2]
  --> SNES Linear/Non-Linear Iterations = 59 / 1
  --> SNES Residual: 0.276371E-12 0.414971E-16 0.166571E-13
  --> max change: dpmx=   2.9104E-11

 --> appending to hdf5 output file: 2D_flow-steady-state.h5
      0.03 Seconds to write HDF5 file.

== RICHARDS FLOW ===============================================================
  0 2r: 2.76E-13 2x: 0.00E+00 2u: 0.00E+00 ir: 1.67E-14 iu: 0.00E+00 rsn:   0
  1 2r: 2.77E-13 2x: 9.17E+06 2u: 4.21E-10 ir: 1.67E-14 iu: 1.46E-11 rsn: stol

 Step     78 Time=  1.50000E+01 Dt=  1.00000E+00 [y] conv_reason: 4
  newton =   1 [     201] linear =    65 [     72908] cuts =  0 [   2]
  --> SNES Linear/Non-Linear Iterations = 65 / 1
  --> SNES Residual: 0.276505E-12 0.415173E-16 0.166571E-13
  --> max change: dpmx=   2.9104E-11

 --> appending to hdf5 output file: 2D_flow-steady-state.h5
      0.01 Seconds to write HDF5 file.

== RICHARDS FLOW ===============================================================
  0 2r: 2.77E-13 2x: 0.00E+00 2u: 0.00E+00 ir: 1.67E-14 iu: 0.00E+00 rsn:   0
  1 2r: 2.77E-13 2x: 9.17E+06 2u: 4.21E-10 ir: 1.67E-14 iu: 1.46E-11 rsn: stol

 Step     79 Time=  1.60000E+01 Dt=  1.00000E+00 [y] conv_reason: 4
  newton =   1 [     202] linear =    67 [     72975] cuts =  0 [   2]
  --> SNES Linear/Non-Linear Iterations = 67 / 1
  --> SNES Residual: 0.277105E-12 0.416074E-16 0.166571E-13
  --> max change: dpmx=   2.9104E-11

 --> appending to hdf5 output file: 2D_flow-steady-state.h5
      0.01 Seconds to write HDF5 file.

== RICHARDS FLOW ===============================================================
  0 2r: 2.77E-13 2x: 0.00E+00 2u: 0.00E+00 ir: 1.67E-14 iu: 0.00E+00 rsn:   0
  1 2r: 2.77E-13 2x: 9.17E+06 2u: 4.21E-10 ir: 1.67E-14 iu: 1.46E-11 rsn: stol

 Step     80 Time=  1.70000E+01 Dt=  1.00000E+00 [y] conv_reason: 4
  newton =   1 [     203] linear =    53 [     73028] cuts =  0 [   2]
  --> SNES Linear/Non-Linear Iterations = 53 / 1
  --> SNES Residual: 0.276759E-12 0.415555E-16 0.166571E-13
  --> max change: dpmx=   2.9104E-11

 --> appending to hdf5 output file: 2D_flow-steady-state.h5
      0.01 Seconds to write HDF5 file.

== RICHARDS FLOW ===============================================================
  0 2r: 2.77E-13 2x: 0.00E+00 2u: 0.00E+00 ir: 1.67E-14 iu: 0.00E+00 rsn:   0
  1 2r: 2.77E-13 2x: 9.17E+06 2u: 4.21E-10 ir: 1.67E-14 iu: 1.46E-11 rsn: stol

 Step     81 Time=  1.80000E+01 Dt=  1.00000E+00 [y] conv_reason: 4
  newton =   1 [     204] linear =    69 [     73097] cuts =  0 [   2]
  --> SNES Linear/Non-Linear Iterations = 69 / 1
  --> SNES Residual: 0.276946E-12 0.415835E-16 0.166571E-13
  --> max change: dpmx=   2.9104E-11

 --> appending to hdf5 output file: 2D_flow-steady-state.h5
      0.04 Seconds to write HDF5 file.

== RICHARDS FLOW ===============================================================
  0 2r: 2.77E-13 2x: 0.00E+00 2u: 0.00E+00 ir: 1.67E-14 iu: 0.00E+00 rsn:   0
  1 2r: 2.76E-13 2x: 9.17E+06 2u: 4.21E-10 ir: 1.67E-14 iu: 1.46E-11 rsn: stol

 Step     82 Time=  1.90000E+01 Dt=  1.00000E+00 [y] conv_reason: 4
  newton =   1 [     205] linear =    53 [     73150] cuts =  0 [   2]
  --> SNES Linear/Non-Linear Iterations = 53 / 1
  --> SNES Residual: 0.276458E-12 0.415102E-16 0.166571E-13
  --> max change: dpmx=   2.9104E-11

 --> appending to hdf5 output file: 2D_flow-steady-state.h5
      0.05 Seconds to write HDF5 file.

== RICHARDS FLOW ===============================================================
  0 2r: 2.76E-13 2x: 0.00E+00 2u: 0.00E+00 ir: 1.67E-14 iu: 0.00E+00 rsn:   0
  1 2r: 2.77E-13 2x: 9.17E+06 2u: 4.21E-10 ir: 1.67E-14 iu: 1.45E-11 rsn: stol

 Step     83 Time=  2.00000E+01 Dt=  1.00000E+00 [y] conv_reason: 4
  newton =   1 [     206] linear =    74 [     73224] cuts =  0 [   2]
  --> SNES Linear/Non-Linear Iterations = 74 / 1
  --> SNES Residual: 0.276567E-12 0.415265E-16 0.166571E-13
  --> max change: dpmx=   1.4552E-11

 --> appending to hdf5 output file: 2D_flow-steady-state.h5
      0.25 Seconds to write HDF5 file.
 --> Dump checkpoint file: 2D_flow-steady-state-restart.h5
      Seconds to write to checkpoint file:       0.29

PMCSubsurfaceFlow
 Total Time: 5.1835E+00 seconds

 FLOW TS SNES steps = 83  newton = 206  linear = 73224  cuts = 2
 FLOW TS SNES Wasted Linear Iterations = 2928
 FLOW TS SNES Wasted Newton Iterations = 5
 FLOW TS SNES time = 5.1 seconds

 Wall Clock Time:  1.2286E+01 [sec]   2.0477E-01 [min]   3.4128E-03 [hr]
