
=================
  PFLOTRAN v6.0
=================

"grid_structured_type" set to default value.
pflotran card:: NUMERICAL_METHODS
pflotran card:: GRID
pflotran card:: MATERIAL_PROPERTY
  Name :: soil1
pflotran card:: CHARACTERISTIC_CURVES
  Name :: default
 WARNING: Mualem-van Genuchten relative permeability function is being used without SMOOTH option.
pflotran card:: OUTPUT
"OUTPUT,SNAPSHOT_FILE,FORMAT,HDF5" set to default value.
pflotran card:: TIME
pflotran card:: REGION
all
pflotran card:: REGION
top
pflotran card:: REGION
bottom
pflotran card:: REGION
east
pflotran card:: REGION
west
pflotran card:: FLOW_CONDITION
initial
pflotran card:: FLOW_CONDITION
recharge
pflotran card:: FLOW_CONDITION
west
pflotran card:: FLOW_CONDITION
east
pflotran card:: INITIAL_CONDITION
"Initial Condition name" set to default value.
pflotran card:: BOUNDARY_CONDITION
pflotran card:: BOUNDARY_CONDITION
pflotran card:: BOUNDARY_CONDITION
pflotran card:: STRATA
pflotran card:: END_SUBSURFACE

Process Decomposition

Extent of Gridded Domain
 X: 0.000000E+00 - 2.220000E+02
 Y: 0.000000E+00 - 1.000000E+00
 Z: 0.000000E+00 - 6.200000E+00

Size of Gridded Domain
 Number of grid cells: 6882
 Maximum number of grid cells per process: 868
 Minimum number of grid cells per process: 837

Number of active grid cells: 6882
Number of inactive grid cells: 0


=+=+=+=+=+=+=+=+=+=+=+=+=+=+=+=+=+=+=+=+=+=+=+=+=+=+=+=+=+=+=+=+=+=+=+=+=+=+=+=+

  Initial Condition

--------------------------------------------------------------------------------
          Flow Condition:   initial
                  Region:   all
--------------------------------------------------------------------------------

  Flow Condition: initial
    Synchronize time with update: no
    Time units: yr
    Length units: m
      Datum:
        Dataset: Unnamed Ascii Dataset
          Type: dataset_ascii_type
          Transient: no
          Array Rank:  3

    Sub Condition: pressure
      Type: hydrostatic
      Gradient:
      Data:
        Dataset: Unnamed Ascii Dataset
          Type: dataset_ascii_type
          Transient: no
          Array Rank:  1

--------------------------------------------------------------------------------

=+=+=+=+=+=+=+=+=+=+=+=+=+=+=+=+=+=+=+=+=+=+=+=+=+=+=+=+=+=+=+=+=+=+=+=+=+=+=+=+

  Boundary Condition

--------------------------------------------------------------------------------
          Flow Condition:   recharge
                  Region:   top
--------------------------------------------------------------------------------

  Flow Condition: recharge
    Synchronize time with update: no
    Time units: yr
    Length units: m
      Datum:

    Sub Condition: pressure
      Type: neumann
      Gradient:
      Data:
        Dataset: Unnamed Ascii Dataset
          Type: dataset_ascii_type
          Transient: no
          Array Rank:  1

--------------------------------------------------------------------------------

=+=+=+=+=+=+=+=+=+=+=+=+=+=+=+=+=+=+=+=+=+=+=+=+=+=+=+=+=+=+=+=+=+=+=+=+=+=+=+=+

  Boundary Condition

--------------------------------------------------------------------------------
          Flow Condition:   east
                  Region:   east
--------------------------------------------------------------------------------

  Flow Condition: east
    Synchronize time with update: no
    Time units: yr
    Length units: m
      Datum:
        Dataset: Unnamed Ascii Dataset
          Type: dataset_ascii_type
          Transient: no
          Array Rank:  3

    Sub Condition: pressure
      Type: hydrostatic
      Gradient:
      Data:
        Dataset: Unnamed Ascii Dataset
          Type: dataset_ascii_type
          Transient: no
          Array Rank:  1

--------------------------------------------------------------------------------

=+=+=+=+=+=+=+=+=+=+=+=+=+=+=+=+=+=+=+=+=+=+=+=+=+=+=+=+=+=+=+=+=+=+=+=+=+=+=+=+

  Boundary Condition

--------------------------------------------------------------------------------
          Flow Condition:   west
                  Region:   west
--------------------------------------------------------------------------------

  Flow Condition: west
    Synchronize time with update: no
    Time units: yr
    Length units: m
      Datum:
        Dataset: Unnamed Ascii Dataset
          Type: dataset_ascii_type
          Transient: no
          Array Rank:  3

    Sub Condition: pressure
      Type: hydrostatic
      Gradient:
      Data:
        Dataset: Unnamed Ascii Dataset
          Type: dataset_ascii_type
          Transient: no
          Array Rank:  1

--------------------------------------------------------------------------------
Default HDF5 method is used in Initialization
  Beginning setup of FLOW SNES
 number of dofs =   1, number of phases =   1
 mode = Richards: p
  Finished setting up FLOW SNES

 Requested processors and decomposition =     8, npx,y,z=   -1  -1  -1
 Actual decomposition: npx,y,z=    8   1   1


FLOW Time Stepper SNES
      maximum number of steps: 999999
constant time steps threshold: 5
       maximum number of cuts: 16
             reduction factor: 5.000000E-01
        maximum growth factor: 2.000000E+00
                 acceleration: on
       acceleration threshold: 5
       number of ramp entries: 5
                ramp entry #1: 2.0000
                ramp entry #2: 2.0000
                ramp entry #3: 2.0000
                ramp entry #4: 2.0000
                ramp entry #5: 2.0000
                ramp entry #6: 1.8000
                ramp entry #7: 1.6000
                ramp entry #8: 1.4000
                ramp entry #9: 1.2000
               ramp entry #10: 1.0000
               ramp entry #11: 1.0000
               ramp entry #12: 1.0000
               ramp entry #13: 1.0000

FLOW Newton Solver
                         atol: 1.000000E-50
                         rtol: 1.000000E-08
                         stol: 1.000000E-08
                         dtol: 1.000000E+04
                      maxnorm: 1.000000E+20
                    inftolres: -9.990000E+02
                    inftolupd: -9.990000E+02
                 inftolrelupd: -9.990000E+02
                 inftolsclres: -9.990000E+02
                     max iter: 50
                     min iter: 1
                         maxf: 10000
                  matrix type: baij
         precond. matrix type: baij
               inexact newton: off
            print convergence: on
   print detailed convergence: off
          check infinity norm: on

FLOW Linear Solver
                       solver: bcgs
               preconditioner: bjacobi
                         atol: 1.000000E-50
                         rtol: 1.000000E-05
                         dtol: 1.000000E+04
            maximum iteration: 10000

 --> creating hdf5 output file: 2D_flow-steady-state.h5
      0.07 Seconds to write HDF5 file.

 Finished Initialization


== RICHARDS FLOW ===============================================================
  0 2r: 1.95E-01 2x: 0.00E+00 2u: 0.00E+00 ir: 4.86E-02 iu: 0.00E+00 rsn:   0
  1 2r: 1.20E-02 2x: 8.40E+06 2u: 1.66E+05 ir: 6.16E-03 iu: 1.80E+04 rsn:   0
  2 2r: 4.41E-03 2x: 8.41E+06 2u: 3.37E+04 ir: 2.16E-03 iu: 5.58E+03 rsn:   0
  3 2r: 1.17E-03 2x: 8.41E+06 2u: 8.63E+03 ir: 6.44E-04 iu: 2.33E+03 rsn:   0
  4 2r: 1.83E-04 2x: 8.41E+06 2u: 2.74E+03 ir: 1.14E-04 iu: 1.26E+03 rsn:   0
  5 2r: 5.87E-06 2x: 8.41E+06 2u: 4.40E+02 ir: 4.14E-06 iu: 2.46E+02 rsn:   0
  6 2r: 7.78E-09 2x: 8.41E+06 2u: 1.25E+01 ir: 5.53E-09 iu: 7.79E+00 rsn:   0
  7 2r: 8.64E-14 2x: 8.41E+06 2u: 2.03E-02 ir: 7.90E-15 iu: 7.54E-03 rsn: rtol

 Step      1 Time=  1.14155E-04 Dt=  1.14155E-04 [y] conv_reason: 3
  newton =   7 [       7] linear =   241 [       241] cuts =  0 [   0]
  --> SNES Linear/Non-Linear Iterations = 241 / 7
  --> SNES Residual: 0.864054E-13 0.125553E-16 0.790210E-14
  --> max change: dpmx=   1.8297E+04

== RICHARDS FLOW ===============================================================
  0 2r: 2.05E-03 2x: 0.00E+00 2u: 0.00E+00 ir: 3.54E-04 iu: 0.00E+00 rsn:   0
  1 2r: 1.02E-03 2x: 8.40E+06 2u: 2.31E+04 ir: 6.08E-04 iu: 1.81E+03 rsn:   0
  2 2r: 1.48E-05 2x: 8.40E+06 2u: 1.66E+03 ir: 7.98E-06 iu: 4.08E+02 rsn:   0
  3 2r: 1.14E-08 2x: 8.40E+06 2u: 4.31E+01 ir: 6.75E-09 iu: 1.75E+01 rsn:   0
  4 2r: 9.33E-13 2x: 8.40E+06 2u: 6.07E-02 ir: 4.35E-14 iu: 3.02E-02 rsn: rtol

 Step      2 Time=  1.51826E-04 Dt=  3.76712E-05 [y] conv_reason: 3
  newton =   4 [      11] linear =   106 [       347] cuts =  0 [   0]
  --> SNES Linear/Non-Linear Iterations = 106 / 4
  --> SNES Residual: 0.932511E-12 0.135500E-15 0.435030E-13
  --> max change: dpmx=   2.2224E+03

== RICHARDS FLOW ===============================================================
  0 2r: 1.26E-03 2x: 0.00E+00 2u: 0.00E+00 ir: 1.29E-04 iu: 0.00E+00 rsn:   0
  1 2r: 1.14E-03 2x: 8.39E+06 2u: 3.27E+04 ir: 5.56E-04 iu: 1.85E+03 rsn:   0
  2 2r: 1.36E-05 2x: 8.39E+06 2u: 1.95E+03 ir: 6.37E-06 iu: 3.45E+02 rsn:   0
  3 2r: 1.99E-09 2x: 8.39E+06 2u: 3.63E+01 ir: 7.11E-10 iu: 1.05E+01 rsn:   0
  4 2r: 2.79E-13 2x: 8.39E+06 2u: 3.18E-02 ir: 2.11E-14 iu: 9.83E-03 rsn: rtol

 Step      3 Time=  2.27169E-04 Dt=  7.53425E-05 [y] conv_reason: 3
  newton =   4 [      15] linear =   129 [       476] cuts =  0 [   0]
  --> SNES Linear/Non-Linear Iterations = 129 / 4
  --> SNES Residual: 0.278720E-12 0.404999E-16 0.210960E-13
  --> max change: dpmx=   2.1836E+03

== RICHARDS FLOW ===============================================================
  0 2r: 8.16E-04 2x: 0.00E+00 2u: 0.00E+00 ir: 6.72E-05 iu: 0.00E+00 rsn:   0
  1 2r: 7.19E-04 2x: 8.37E+06 2u: 4.45E+04 ir: 2.59E-04 iu: 2.08E+03 rsn:   0
  2 2r: 4.64E-06 2x: 8.37E+06 2u: 2.59E+03 ir: 1.62E-06 iu: 3.56E+02 rsn:   0
  3 2r: 1.06E-09 2x: 8.37E+06 2u: 4.38E+01 ir: 2.57E-10 iu: 9.27E+00 rsn:   0
  4 2r: 2.46E-13 2x: 8.37E+06 2u: 4.16E-02 ir: 1.48E-14 iu: 6.38E-03 rsn: rtol

 Step      4 Time=  3.77854E-04 Dt=  1.50685E-04 [y] conv_reason: 3
  newton =   4 [      19] linear =   164 [       640] cuts =  0 [   0]
  --> SNES Linear/Non-Linear Iterations = 164 / 4
  --> SNES Residual: 0.245782E-12 0.357137E-16 0.147703E-13
  --> max change: dpmx=   2.4281E+03

== RICHARDS FLOW ===============================================================
  0 2r: 5.29E-04 2x: 0.00E+00 2u: 0.00E+00 ir: 3.89E-05 iu: 0.00E+00 rsn:   0
  1 2r: 7.50E-04 2x: 8.33E+06 2u: 5.97E+04 ir: 2.37E-04 iu: 2.61E+03 rsn:   0
  2 2r: 4.58E-06 2x: 8.33E+06 2u: 3.84E+03 ir: 1.43E-06 iu: 4.34E+02 rsn:   0
  3 2r: 5.75E-10 2x: 8.33E+06 2u: 6.74E+01 ir: 1.01E-10 iu: 1.12E+01 rsn:   0
  4 2r: 3.41E-13 2x: 8.33E+06 2u: 6.17E-02 ir: 1.91E-14 iu: 7.87E-03 rsn: rtol

 Step      5 Time=  6.79224E-04 Dt=  3.01370E-04 [y] conv_reason: 3
  newton =   4 [      23] linear =   198 [       838] cuts =  0 [   0]
  --> SNES Linear/Non-Linear Iterations = 198 / 4
  --> SNES Residual: 0.340886E-12 0.495330E-16 0.191080E-13
  --> max change: dpmx=   3.0201E+03

== RICHARDS FLOW ===============================================================
  0 2r: 3.39E-04 2x: 0.00E+00 2u: 0.00E+00 ir: 2.20E-05 iu: 0.00E+00 rsn:   0
  1 2r: 5.44E-04 2x: 8.29E+06 2u: 7.73E+04 ir: 1.68E-04 iu: 3.04E+03 rsn:   0
  2 2r: 1.76E-06 2x: 8.29E+06 2u: 5.44E+03 ir: 7.31E-07 iu: 5.87E+02 rsn:   0
  3 2r: 1.11E-09 2x: 8.29E+06 2u: 1.18E+02 ir: 4.83E-11 iu: 1.70E+01 rsn:   0
  4 2r: 4.12E-13 2x: 8.29E+06 2u: 3.90E-01 ir: 1.88E-14 iu: 1.42E-02 rsn: rtol

 Step      6 Time=  1.28196E-03 Dt=  6.02740E-04 [y] conv_reason: 3
  newton =   4 [      27] linear =   262 [      1100] cuts =  0 [   0]
  --> SNES Linear/Non-Linear Iterations = 262 / 4
  --> SNES Residual: 0.411568E-12 0.598036E-16 0.188131E-13
  --> max change: dpmx=   3.6452E+03

== RICHARDS FLOW ===============================================================
  0 2r: 2.14E-04 2x: 0.00E+00 2u: 0.00E+00 ir: 1.22E-05 iu: 0.00E+00 rsn:   0
  1 2r: 3.91E-04 2x: 8.22E+06 2u: 9.64E+04 ir: 1.04E-04 iu: 3.15E+03 rsn:   0
  2 2r: 2.34E-06 2x: 8.22E+06 2u: 6.21E+03 ir: 1.71E-06 iu: 6.36E+02 rsn:   0
  3 2r: 1.25E-09 2x: 8.22E+06 2u: 1.43E+02 ir: 1.32E-10 iu: 2.03E+01 rsn:   0
  4 2r: 6.76E-13 2x: 8.22E+06 2u: 5.04E-01 ir: 2.75E-14 iu: 1.99E-02 rsn: rtol

 Step      7 Time=  2.48744E-03 Dt=  1.20548E-03 [y] conv_reason: 3
  newton =   4 [      31] linear =   345 [      1445] cuts =  0 [   0]
  --> SNES Linear/Non-Linear Iterations = 345 / 4
  --> SNES Residual: 0.676441E-12 0.982913E-16 0.275401E-13
  --> max change: dpmx=   3.8072E+03

== RICHARDS FLOW ===============================================================
  0 2r: 1.32E-04 2x: 0.00E+00 2u: 0.00E+00 ir: 6.62E-06 iu: 0.00E+00 rsn:   0
  1 2r: 2.87E-04 2x: 8.13E+06 2u: 1.16E+05 ir: 9.12E-05 iu: 2.68E+03 rsn:   0
  2 2r: 1.67E-06 2x: 8.13E+06 2u: 5.33E+03 ir: 7.59E-07 iu: 4.43E+02 rsn:   0
  3 2r: 5.06E-10 2x: 8.13E+06 2u: 9.46E+01 ir: 4.35E-11 iu: 9.95E+00 rsn:   0
  4 2r: 1.40E-13 2x: 8.13E+06 2u: 3.86E-01 ir: 7.95E-15 iu: 6.54E-03 rsn: rtol

 Step      8 Time=  4.89840E-03 Dt=  2.41096E-03 [y] conv_reason: 3
  newton =   4 [      35] linear =   399 [      1844] cuts =  0 [   0]
  --> SNES Linear/Non-Linear Iterations = 399 / 4
  --> SNES Residual: 0.140256E-12 0.203801E-16 0.794844E-14
  --> max change: dpmx=   3.1352E+03

== RICHARDS FLOW ===============================================================
  0 2r: 8.00E-05 2x: 0.00E+00 2u: 0.00E+00 ir: 3.48E-06 iu: 0.00E+00 rsn:   0
  1 2r: 2.08E-04 2x: 8.02E+06 2u: 1.32E+05 ir: 7.04E-05 iu: 2.42E+03 rsn:   0
  2 2r: 1.35E-06 2x: 8.02E+06 2u: 3.78E+03 ir: 5.49E-07 iu: 2.14E+02 rsn:   0
  3 2r: 1.69E-10 2x: 8.02E+06 2u: 3.95E+01 ir: 7.59E-12 iu: 2.84E+00 rsn:   0
  4 2r: 2.58E-14 2x: 8.02E+06 2u: 2.16E-01 ir: 2.05E-15 iu: 4.57E-03 rsn: rtol

 Step      9 Time=  9.72032E-03 Dt=  4.82192E-03 [y] conv_reason: 3
  newton =   4 [      39] linear =   413 [      2257] cuts =  0 [   0]
  --> SNES Linear/Non-Linear Iterations = 413 / 4
  --> SNES Residual: 0.257819E-13 0.374628E-17 0.204718E-14
  --> max change: dpmx=   2.5944E+03

== RICHARDS FLOW ===============================================================
  0 2r: 4.59E-05 2x: 0.00E+00 2u: 0.00E+00 ir: 1.77E-06 iu: 0.00E+00 rsn:   0
  1 2r: 1.34E-04 2x: 7.90E+06 2u: 1.27E+05 ir: 4.99E-05 iu: 2.21E+03 rsn:   0
  2 2r: 1.20E-06 2x: 7.90E+06 2u: 3.06E+03 ir: 4.71E-07 iu: 1.28E+02 rsn:   0
  3 2r: 9.00E-11 2x: 7.90E+06 2u: 1.63E+01 ir: 4.12E-12 iu: 1.03E+00 rsn:   0
  4 2r: 1.70E-14 2x: 7.90E+06 2u: 1.36E-01 ir: 9.60E-16 iu: 2.90E-03 rsn: rtol

 Step     10 Time=  1.93642E-02 Dt=  9.64384E-03 [y] conv_reason: 3
  newton =   4 [      43] linear =   447 [      2704] cuts =  0 [   0]
  --> SNES Linear/Non-Linear Iterations = 447 / 4
  --> SNES Residual: 0.170384E-13 0.247579E-17 0.960156E-15
  --> max change: dpmx=   2.3213E+03

== RICHARDS FLOW ===============================================================
  0 2r: 2.23E-05 2x: 0.00E+00 2u: 0.00E+00 ir: 8.15E-07 iu: 0.00E+00 rsn:   0
  1 2r: 5.70E-05 2x: 7.85E+06 2u: 6.03E+04 ir: 2.15E-05 iu: 1.07E+03 rsn:   0
  2 2r: 1.19E-07 2x: 7.85E+06 2u: 6.08E+02 ir: 5.15E-08 iu: 2.63E+01 rsn:   0
  3 2r: 2.71E-12 2x: 7.85E+06 2u: 8.47E-01 ir: 1.37E-13 iu: 4.30E-02 rsn:   0
  4 2r: 1.65E-14 2x: 7.85E+06 2u: 1.88E-03 ir: 9.26E-16 iu: 4.11E-05 rsn: rtol

 Step     11 Time=  2.73973E-02 Dt=  8.03311E-03 [y] conv_reason: 3
  newton =   4 [      47] linear =   491 [      3195] cuts =  0 [   0]
  --> SNES Linear/Non-Linear Iterations = 491 / 4
  --> SNES Residual: 0.165300E-13 0.240192E-17 0.926065E-15
  --> max change: dpmx=   1.0879E+03

 --> appending to hdf5 output file: 2D_flow-steady-state.h5
      0.04 Seconds to write HDF5 file.

== RICHARDS FLOW ===============================================================
  0 2r: 1.26E-05 2x: 0.00E+00 2u: 0.00E+00 ir: 4.57E-07 iu: 0.00E+00 rsn:   0
  1 2r: 4.37E-05 2x: 7.80E+06 2u: 5.28E+04 ir: 1.67E-05 iu: 9.38E+02 rsn:   0
  2 2r: 3.10E-07 2x: 7.80E+06 2u: 6.53E+02 ir: 2.14E-07 iu: 2.28E+01 rsn:   0
  3 2r: 1.13E-12 2x: 7.80E+06 2u: 8.64E-01 ir: 5.87E-13 iu: 4.16E-02 rsn:   0
  4 2r: 1.60E-14 2x: 7.80E+06 2u: 2.57E-04 ir: 8.83E-16 iu: 5.56E-06 rsn: rtol

 Step     12 Time=  4.66849E-02 Dt=  1.92877E-02 [y] conv_reason: 3
  newton =   4 [      51] linear =   523 [      3718] cuts =  0 [   0]
  --> SNES Linear/Non-Linear Iterations = 523 / 4
  --> SNES Residual: 0.159590E-13 0.231895E-17 0.883343E-15
  --> max change: dpmx=   9.6021E+02

== RICHARDS FLOW ===============================================================
  0 2r: 4.61E-06 2x: 0.00E+00 2u: 0.00E+00 ir: 1.67E-07 iu: 0.00E+00 rsn:   0
  1 2r: 1.04E-05 2x: 7.79E+06 2u: 1.31E+04 ir: 4.21E-06 iu: 2.38E+02 rsn:   0
  2 2r: 1.17E-09 2x: 7.79E+06 2u: 3.31E+01 ir: 5.62E-10 iu: 1.24E+00 rsn:   0
  3 2r: 1.65E-14 2x: 7.79E+06 2u: 2.96E-02 ir: 9.15E-16 iu: 5.51E-04 rsn: rtol

 Step     13 Time=  5.47945E-02 Dt=  8.10959E-03 [y] conv_reason: 3
  newton =   3 [      54] linear =   362 [      4080] cuts =  0 [   0]
  --> SNES Linear/Non-Linear Iterations = 362 / 3
  --> SNES Residual: 0.164513E-13 0.239048E-17 0.914504E-15
  --> max change: dpmx=   2.3884E+02

 --> appending to hdf5 output file: 2D_flow-steady-state.h5
      0.04 Seconds to write HDF5 file.

== RICHARDS FLOW ===============================================================
  0 2r: 2.70E-06 2x: 0.00E+00 2u: 0.00E+00 ir: 9.87E-08 iu: 0.00E+00 rsn:   0
  1 2r: 1.13E-05 2x: 7.78E+06 2u: 1.33E+04 ir: 3.81E-06 iu: 2.40E+02 rsn:   0
  2 2r: 1.38E-09 2x: 7.78E+06 2u: 3.93E+01 ir: 5.83E-10 iu: 1.40E+00 rsn:   0
  3 2r: 1.71E-14 2x: 7.78E+06 2u: 3.91E-02 ir: 1.06E-15 iu: 1.04E-03 rsn: rtol

 Step     14 Time=  8.21918E-02 Dt=  2.73973E-02 [y] conv_reason: 3
  newton =   3 [      57] linear =   383 [      4463] cuts =  0 [   0]
  --> SNES Linear/Non-Linear Iterations = 383 / 3
  --> SNES Residual: 0.170905E-13 0.248336E-17 0.106232E-14
  --> max change: dpmx=   2.4142E+02

 --> appending to hdf5 output file: 2D_flow-steady-state.h5
      0.03 Seconds to write HDF5 file.

== RICHARDS FLOW ===============================================================
  0 2r: 8.07E-07 2x: 0.00E+00 2u: 0.00E+00 ir: 2.96E-08 iu: 0.00E+00 rsn:   0
  1 2r: 2.75E-06 2x: 7.78E+06 2u: 3.98E+03 ir: 1.11E-06 iu: 7.25E+01 rsn:   0
  2 2r: 6.81E-11 2x: 7.78E+06 2u: 6.75E+00 ir: 3.17E-11 iu: 2.08E-01 rsn:   0
  3 2r: 1.57E-14 2x: 7.78E+06 2u: 3.21E-03 ir: 9.38E-16 iu: 1.13E-04 rsn: stol

 Step     15 Time=  1.09589E-01 Dt=  2.73973E-02 [y] conv_reason: 4
  newton =   3 [      60] linear =   381 [      4844] cuts =  0 [   0]
  --> SNES Linear/Non-Linear Iterations = 381 / 3
  --> SNES Residual: 0.156915E-13 0.228008E-17 0.938007E-15
  --> max change: dpmx=   7.2682E+01

 --> appending to hdf5 output file: 2D_flow-steady-state.h5
      0.03 Seconds to write HDF5 file.

== RICHARDS FLOW ===============================================================
  0 2r: 2.42E-07 2x: 0.00E+00 2u: 0.00E+00 ir: 8.88E-09 iu: 0.00E+00 rsn:   0
  1 2r: 4.11E-08 2x: 7.78E+06 2u: 1.20E+03 ir: 2.93E-08 iu: 2.18E+01 rsn:   0
  2 2r: 2.66E-13 2x: 7.78E+06 2u: 8.51E-01 ir: 3.03E-14 iu: 1.67E-02 rsn:   0
  3 2r: 1.55E-14 2x: 7.78E+06 2u: 9.77E-05 ir: 8.71E-16 iu: 2.16E-06 rsn: stol

 Step     16 Time=  1.36986E-01 Dt=  2.73973E-02 [y] conv_reason: 4
  newton =   3 [      63] linear =   392 [      5236] cuts =  0 [   0]
  --> SNES Linear/Non-Linear Iterations = 392 / 3
  --> SNES Residual: 0.154904E-13 0.225086E-17 0.871085E-15
  --> max change: dpmx=   2.1863E+01

 --> appending to hdf5 output file: 2D_flow-steady-state.h5
      0.03 Seconds to write HDF5 file.

== RICHARDS FLOW ===============================================================
  0 2r: 7.28E-08 2x: 0.00E+00 2u: 0.00E+00 ir: 2.67E-09 iu: 0.00E+00 rsn:   0
  1 2r: 3.88E-10 2x: 7.78E+06 2u: 3.61E+02 ir: 1.40E-10 iu: 6.58E+00 rsn:   0
  2 2r: 9.01E-14 2x: 7.78E+06 2u: 1.56E-01 ir: 7.36E-15 iu: 3.16E-03 rsn:   0
  3 2r: 1.67E-14 2x: 7.78E+06 2u: 1.64E-05 ir: 8.92E-16 iu: 3.68E-07 rsn: stol

 Step     17 Time=  1.64384E-01 Dt=  2.73973E-02 [y] conv_reason: 4
  newton =   3 [      66] linear =   396 [      5632] cuts =  0 [   0]
  --> SNES Linear/Non-Linear Iterations = 396 / 3
  --> SNES Residual: 0.167086E-13 0.242787E-17 0.892013E-15
  --> max change: dpmx=   6.5791E+00

 --> appending to hdf5 output file: 2D_flow-steady-state.h5
      0.04 Seconds to write HDF5 file.

== RICHARDS FLOW ===============================================================
  0 2r: 2.19E-08 2x: 0.00E+00 2u: 0.00E+00 ir: 8.04E-10 iu: 0.00E+00 rsn:   0
  1 2r: 3.84E-11 2x: 7.78E+06 2u: 1.09E+02 ir: 1.29E-11 iu: 1.98E+00 rsn:   0
  2 2r: 1.68E-14 2x: 7.78E+06 2u: 3.23E-02 ir: 9.69E-16 iu: 6.71E-04 rsn: stol

 Step     18 Time=  1.91781E-01 Dt=  2.73973E-02 [y] conv_reason: 4
  newton =   2 [      68] linear =   240 [      5872] cuts =  0 [   0]
  --> SNES Linear/Non-Linear Iterations = 240 / 2
  --> SNES Residual: 0.168394E-13 0.244687E-17 0.968504E-15
  --> max change: dpmx=   1.9800E+00

 --> appending to hdf5 output file: 2D_flow-steady-state.h5
      0.04 Seconds to write HDF5 file.

== RICHARDS FLOW ===============================================================
  0 2r: 6.59E-09 2x: 0.00E+00 2u: 0.00E+00 ir: 2.42E-10 iu: 0.00E+00 rsn:   0
  1 2r: 8.25E-12 2x: 7.78E+06 2u: 3.27E+01 ir: 1.14E-12 iu: 5.96E-01 rsn:   0
  2 2r: 1.60E-14 2x: 7.78E+06 2u: 1.54E-02 ir: 8.82E-16 iu: 3.16E-04 rsn: stol

 Step     19 Time=  2.19178E-01 Dt=  2.73973E-02 [y] conv_reason: 4
  newton =   2 [      70] linear =   267 [      6139] cuts =  0 [   0]
  --> SNES Linear/Non-Linear Iterations = 267 / 2
  --> SNES Residual: 0.159641E-13 0.231969E-17 0.882403E-15
  --> max change: dpmx=   5.9589E-01

 --> appending to hdf5 output file: 2D_flow-steady-state.h5
      0.04 Seconds to write HDF5 file.

== RICHARDS FLOW ===============================================================
  0 2r: 1.98E-09 2x: 0.00E+00 2u: 0.00E+00 ir: 7.28E-11 iu: 0.00E+00 rsn:   0
  1 2r: 2.22E-12 2x: 7.78E+06 2u: 9.84E+00 ir: 1.19E-13 iu: 1.79E-01 rsn:   0
  2 2r: 1.62E-14 2x: 7.78E+06 2u: 4.84E-03 ir: 8.98E-16 iu: 9.61E-05 rsn: stol

 Step     20 Time=  2.46575E-01 Dt=  2.73973E-02 [y] conv_reason: 4
  newton =   2 [      72] linear =   277 [      6416] cuts =  0 [   0]
  --> SNES Linear/Non-Linear Iterations = 277 / 2
  --> SNES Residual: 0.162376E-13 0.235943E-17 0.897858E-15
  --> max change: dpmx=   1.7934E-01

 --> appending to hdf5 output file: 2D_flow-steady-state.h5
      0.05 Seconds to write HDF5 file.

== RICHARDS FLOW ===============================================================
  0 2r: 5.97E-10 2x: 0.00E+00 2u: 0.00E+00 ir: 2.19E-11 iu: 0.00E+00 rsn:   0
  1 2r: 7.87E-13 2x: 7.78E+06 2u: 2.96E+00 ir: 3.22E-14 iu: 5.40E-02 rsn:   0
  2 2r: 1.58E-14 2x: 7.78E+06 2u: 1.52E-03 ir: 8.63E-16 iu: 3.23E-05 rsn: stol

 Step     21 Time=  2.73973E-01 Dt=  2.73973E-02 [y] conv_reason: 4
  newton =   2 [      74] linear =   232 [      6648] cuts =  0 [   0]
  --> SNES Linear/Non-Linear Iterations = 232 / 2
  --> SNES Residual: 0.157760E-13 0.229235E-17 0.863425E-15
  --> max change: dpmx=   5.3974E-02

 --> appending to hdf5 output file: 2D_flow-steady-state.h5
      0.05 Seconds to write HDF5 file.

== RICHARDS FLOW ===============================================================
  0 2r: 1.80E-10 2x: 0.00E+00 2u: 0.00E+00 ir: 6.60E-12 iu: 0.00E+00 rsn:   0
  1 2r: 2.21E-13 2x: 7.78E+06 2u: 8.91E-01 ir: 9.13E-15 iu: 1.62E-02 rsn:   0
  2 2r: 1.58E-14 2x: 7.78E+06 2u: 4.11E-04 ir: 8.65E-16 iu: 8.70E-06 rsn: stol

 Step     22 Time=  3.01370E-01 Dt=  2.73973E-02 [y] conv_reason: 4
  newton =   2 [      76] linear =   256 [      6904] cuts =  0 [   0]
  --> SNES Linear/Non-Linear Iterations = 256 / 2
  --> SNES Residual: 0.157671E-13 0.229107E-17 0.864962E-15
  --> max change: dpmx=   1.6244E-02

 --> appending to hdf5 output file: 2D_flow-steady-state.h5
      0.03 Seconds to write HDF5 file.

== RICHARDS FLOW ===============================================================
  0 2r: 5.41E-11 2x: 0.00E+00 2u: 0.00E+00 ir: 1.99E-12 iu: 0.00E+00 rsn:   0
  1 2r: 5.81E-14 2x: 7.78E+06 2u: 2.68E-01 ir: 3.08E-15 iu: 4.89E-03 rsn:   0
  2 2r: 1.60E-14 2x: 7.78E+06 2u: 9.40E-05 ir: 8.83E-16 iu: 2.06E-06 rsn: stol

 Step     23 Time=  3.28767E-01 Dt=  2.73973E-02 [y] conv_reason: 4
  newton =   2 [      78] linear =   266 [      7170] cuts =  0 [   0]
  --> SNES Linear/Non-Linear Iterations = 266 / 2
  --> SNES Residual: 0.159912E-13 0.232363E-17 0.883323E-15
  --> max change: dpmx=   4.8888E-03

 --> appending to hdf5 output file: 2D_flow-steady-state.h5
      0.04 Seconds to write HDF5 file.

== RICHARDS FLOW ===============================================================
  0 2r: 1.63E-11 2x: 0.00E+00 2u: 0.00E+00 ir: 5.97E-13 iu: 0.00E+00 rsn:   0
  1 2r: 2.07E-14 2x: 7.78E+06 2u: 8.07E-02 ir: 1.53E-15 iu: 1.47E-03 rsn:   0
  2 2r: 1.59E-14 2x: 7.78E+06 2u: 4.73E-06 ir: 8.83E-16 iu: 9.73E-08 rsn: stol

 Step     24 Time=  3.56164E-01 Dt=  2.73973E-02 [y] conv_reason: 4
  newton =   2 [      80] linear =   293 [      7463] cuts =  0 [   0]
  --> SNES Linear/Non-Linear Iterations = 293 / 2
  --> SNES Residual: 0.159279E-13 0.231443E-17 0.882531E-15
  --> max change: dpmx=   1.4714E-03

 --> appending to hdf5 output file: 2D_flow-steady-state.h5
      0.04 Seconds to write HDF5 file.

== RICHARDS FLOW ===============================================================
  0 2r: 4.90E-12 2x: 0.00E+00 2u: 0.00E+00 ir: 1.80E-13 iu: 0.00E+00 rsn:   0
  1 2r: 1.64E-14 2x: 7.78E+06 2u: 2.43E-02 ir: 9.89E-16 iu: 4.43E-04 rsn: stol

 Step     25 Time=  3.83562E-01 Dt=  2.73973E-02 [y] conv_reason: 4
  newton =   1 [      81] linear =   115 [      7578] cuts =  0 [   0]
  --> SNES Linear/Non-Linear Iterations = 115 / 1
  --> SNES Residual: 0.164298E-13 0.238736E-17 0.988675E-15
  --> max change: dpmx=   4.4278E-04

 --> appending to hdf5 output file: 2D_flow-steady-state.h5
      0.04 Seconds to write HDF5 file.

== RICHARDS FLOW ===============================================================
  0 2r: 1.47E-12 2x: 0.00E+00 2u: 0.00E+00 ir: 5.41E-14 iu: 0.00E+00 rsn:   0
  1 2r: 1.60E-14 2x: 7.78E+06 2u: 7.31E-03 ir: 9.07E-16 iu: 1.33E-04 rsn: stol

 Step     26 Time=  4.10959E-01 Dt=  2.73973E-02 [y] conv_reason: 4
  newton =   1 [      82] linear =   115 [      7693] cuts =  0 [   0]
  --> SNES Linear/Non-Linear Iterations = 115 / 1
  --> SNES Residual: 0.160049E-13 0.232562E-17 0.907439E-15
  --> max change: dpmx=   1.3328E-04

 --> appending to hdf5 output file: 2D_flow-steady-state.h5
      0.03 Seconds to write HDF5 file.

== RICHARDS FLOW ===============================================================
  0 2r: 4.44E-13 2x: 0.00E+00 2u: 0.00E+00 ir: 1.64E-14 iu: 0.00E+00 rsn:   0
  1 2r: 1.54E-14 2x: 7.78E+06 2u: 2.20E-03 ir: 9.03E-16 iu: 4.01E-05 rsn: stol

 Step     27 Time=  4.38356E-01 Dt=  2.73973E-02 [y] conv_reason: 4
  newton =   1 [      83] linear =   114 [      7807] cuts =  0 [   0]
  --> SNES Linear/Non-Linear Iterations = 114 / 1
  --> SNES Residual: 0.153936E-13 0.223679E-17 0.903358E-15
  --> max change: dpmx=   4.0125E-05

 --> appending to hdf5 output file: 2D_flow-steady-state.h5
      0.04 Seconds to write HDF5 file.

== RICHARDS FLOW ===============================================================
  0 2r: 1.35E-13 2x: 0.00E+00 2u: 0.00E+00 ir: 4.93E-15 iu: 0.00E+00 rsn:   0
  1 2r: 1.55E-14 2x: 7.78E+06 2u: 6.63E-04 ir: 8.71E-16 iu: 1.21E-05 rsn: stol

 Step     28 Time=  4.65753E-01 Dt=  2.73973E-02 [y] conv_reason: 4
  newton =   1 [      84] linear =   117 [      7924] cuts =  0 [   0]
  --> SNES Linear/Non-Linear Iterations = 117 / 1
  --> SNES Residual: 0.155465E-13 0.225901E-17 0.871442E-15
  --> max change: dpmx=   1.2083E-05

 --> appending to hdf5 output file: 2D_flow-steady-state.h5
      0.03 Seconds to write HDF5 file.

== RICHARDS FLOW ===============================================================
  0 2r: 4.32E-14 2x: 0.00E+00 2u: 0.00E+00 ir: 1.55E-15 iu: 0.00E+00 rsn:   0
  1 2r: 1.60E-14 2x: 7.78E+06 2u: 2.00E-04 ir: 8.81E-16 iu: 3.64E-06 rsn: stol

 Step     29 Time=  4.93151E-01 Dt=  2.73973E-02 [y] conv_reason: 4
  newton =   1 [      85] linear =   114 [      8038] cuts =  0 [   0]
  --> SNES Linear/Non-Linear Iterations = 114 / 1
  --> SNES Residual: 0.159523E-13 0.231797E-17 0.880895E-15
  --> max change: dpmx=   3.6381E-06

 --> appending to hdf5 output file: 2D_flow-steady-state.h5
      0.03 Seconds to write HDF5 file.

== RICHARDS FLOW ===============================================================
  0 2r: 2.00E-14 2x: 0.00E+00 2u: 0.00E+00 ir: 8.81E-16 iu: 0.00E+00 rsn:   0
  1 2r: 1.59E-14 2x: 7.78E+06 2u: 6.01E-05 ir: 8.63E-16 iu: 1.10E-06 rsn: stol

 Step     30 Time=  5.20548E-01 Dt=  2.73973E-02 [y] conv_reason: 4
  newton =   1 [      86] linear =   116 [      8154] cuts =  0 [   0]
  --> SNES Linear/Non-Linear Iterations = 116 / 1
  --> SNES Residual: 0.158653E-13 0.230534E-17 0.863239E-15
  --> max change: dpmx=   1.0955E-06

 --> appending to hdf5 output file: 2D_flow-steady-state.h5
      0.04 Seconds to write HDF5 file.

== RICHARDS FLOW ===============================================================
  0 2r: 1.63E-14 2x: 0.00E+00 2u: 0.00E+00 ir: 8.63E-16 iu: 0.00E+00 rsn:   0
  1 2r: 1.60E-14 2x: 7.78E+06 2u: 1.81E-05 ir: 8.85E-16 iu: 3.30E-07 rsn: stol

 Step     31 Time=  5.47945E-01 Dt=  2.73973E-02 [y] conv_reason: 4
  newton =   1 [      87] linear =   115 [      8269] cuts =  0 [   0]
  --> SNES Linear/Non-Linear Iterations = 115 / 1
  --> SNES Residual: 0.159911E-13 0.232361E-17 0.884817E-15
  --> max change: dpmx=   3.2989E-07

 --> appending to hdf5 output file: 2D_flow-steady-state.h5
      0.05 Seconds to write HDF5 file.

== RICHARDS FLOW ===============================================================
  0 2r: 1.60E-14 2x: 0.00E+00 2u: 0.00E+00 ir: 8.85E-16 iu: 0.00E+00 rsn:   0
  1 2r: 1.55E-14 2x: 7.78E+06 2u: 5.45E-06 ir: 8.88E-16 iu: 9.93E-08 rsn: stol

 Step     32 Time=  5.75342E-01 Dt=  2.73973E-02 [y] conv_reason: 4
  newton =   1 [      88] linear =   122 [      8391] cuts =  0 [   0]
  --> SNES Linear/Non-Linear Iterations = 122 / 1
  --> SNES Residual: 0.154596E-13 0.224638E-17 0.888477E-15
  --> max change: dpmx=   9.9346E-08

 --> appending to hdf5 output file: 2D_flow-steady-state.h5
      0.04 Seconds to write HDF5 file.

== RICHARDS FLOW ===============================================================
  0 2r: 1.55E-14 2x: 0.00E+00 2u: 0.00E+00 ir: 8.88E-16 iu: 0.00E+00 rsn:   0
  1 2r: 1.61E-14 2x: 7.78E+06 2u: 1.64E-06 ir: 8.84E-16 iu: 2.99E-08 rsn: stol

 Step     33 Time=  6.02740E-01 Dt=  2.73973E-02 [y] conv_reason: 4
  newton =   1 [      89] linear =   112 [      8503] cuts =  0 [   0]
  --> SNES Linear/Non-Linear Iterations = 112 / 1
  --> SNES Residual: 0.160762E-13 0.233598E-17 0.883659E-15
  --> max change: dpmx=   2.9911E-08

 --> appending to hdf5 output file: 2D_flow-steady-state.h5
      0.04 Seconds to write HDF5 file.

== RICHARDS FLOW ===============================================================
  0 2r: 1.61E-14 2x: 0.00E+00 2u: 0.00E+00 ir: 8.84E-16 iu: 0.00E+00 rsn:   0
  1 2r: 1.58E-14 2x: 7.78E+06 2u: 4.94E-07 ir: 8.29E-16 iu: 9.01E-09 rsn: stol

 Step     34 Time=  6.30137E-01 Dt=  2.73973E-02 [y] conv_reason: 4
  newton =   1 [      90] linear =   113 [      8616] cuts =  0 [   0]
  --> SNES Linear/Non-Linear Iterations = 113 / 1
  --> SNES Residual: 0.158377E-13 0.230132E-17 0.828663E-15
  --> max change: dpmx=   9.0149E-09

 --> appending to hdf5 output file: 2D_flow-steady-state.h5
      0.04 Seconds to write HDF5 file.

== RICHARDS FLOW ===============================================================
  0 2r: 1.58E-14 2x: 0.00E+00 2u: 0.00E+00 ir: 8.29E-16 iu: 0.00E+00 rsn:   0
  1 2r: 1.55E-14 2x: 7.78E+06 2u: 1.49E-07 ir: 8.88E-16 iu: 2.71E-09 rsn: stol

 Step     35 Time=  6.57534E-01 Dt=  2.73973E-02 [y] conv_reason: 4
  newton =   1 [      91] linear =   120 [      8736] cuts =  0 [   0]
  --> SNES Linear/Non-Linear Iterations = 120 / 1
  --> SNES Residual: 0.155158E-13 0.225454E-17 0.888490E-15
  --> max change: dpmx=   2.7139E-09

 --> appending to hdf5 output file: 2D_flow-steady-state.h5
      0.03 Seconds to write HDF5 file.

== RICHARDS FLOW ===============================================================
  0 2r: 1.55E-14 2x: 0.00E+00 2u: 0.00E+00 ir: 8.88E-16 iu: 0.00E+00 rsn:   0
  1 2r: 1.59E-14 2x: 7.78E+06 2u: 4.49E-08 ir: 8.90E-16 iu: 8.20E-10 rsn: stol

 Step     36 Time=  6.84932E-01 Dt=  2.73973E-02 [y] conv_reason: 4
  newton =   1 [      92] linear =   117 [      8853] cuts =  0 [   0]
  --> SNES Linear/Non-Linear Iterations = 117 / 1
  --> SNES Residual: 0.158566E-13 0.230407E-17 0.889816E-15
  --> max change: dpmx=   8.2218E-10

 --> appending to hdf5 output file: 2D_flow-steady-state.h5
      0.04 Seconds to write HDF5 file.

== RICHARDS FLOW ===============================================================
  0 2r: 1.59E-14 2x: 0.00E+00 2u: 0.00E+00 ir: 8.90E-16 iu: 0.00E+00 rsn:   0
  1 2r: 1.58E-14 2x: 7.78E+06 2u: 1.35E-08 ir: 8.25E-16 iu: 2.49E-10 rsn: stol

 Step     37 Time=  7.12329E-01 Dt=  2.73973E-02 [y] conv_reason: 4
  newton =   1 [      93] linear =   121 [      8974] cuts =  0 [   0]
  --> SNES Linear/Non-Linear Iterations = 121 / 1
  --> SNES Residual: 0.157524E-13 0.228893E-17 0.825308E-15
  --> max change: dpmx=   2.4738E-10

 --> appending to hdf5 output file: 2D_flow-steady-state.h5
      0.03 Seconds to write HDF5 file.

== RICHARDS FLOW ===============================================================
  0 2r: 1.58E-14 2x: 0.00E+00 2u: 0.00E+00 ir: 8.25E-16 iu: 0.00E+00 rsn:   0
  1 2r: 1.56E-14 2x: 7.78E+06 2u: 4.10E-09 ir: 8.45E-16 iu: 7.91E-11 rsn: stol

 Step     38 Time=  7.39726E-01 Dt=  2.73973E-02 [y] conv_reason: 4
  newton =   1 [      94] linear =   119 [      9093] cuts =  0 [   0]
  --> SNES Linear/Non-Linear Iterations = 119 / 1
  --> SNES Residual: 0.156158E-13 0.226908E-17 0.845316E-15
  --> max change: dpmx=   8.0036E-11

 --> appending to hdf5 output file: 2D_flow-steady-state.h5
      0.04 Seconds to write HDF5 file.

== RICHARDS FLOW ===============================================================
  0 2r: 1.56E-14 2x: 0.00E+00 2u: 0.00E+00 ir: 8.45E-16 iu: 0.00E+00 rsn:   0
  1 2r: 1.61E-14 2x: 7.78E+06 2u: 1.28E-09 ir: 8.73E-16 iu: 2.85E-11 rsn: stol

 Step     39 Time=  7.67123E-01 Dt=  2.73973E-02 [y] conv_reason: 4
  newton =   1 [      95] linear =   104 [      9197] cuts =  0 [   0]
  --> SNES Linear/Non-Linear Iterations = 104 / 1
  --> SNES Residual: 0.161054E-13 0.234023E-17 0.872509E-15
  --> max change: dpmx=   2.9104E-11

 --> appending to hdf5 output file: 2D_flow-steady-state.h5
      0.05 Seconds to write HDF5 file.

== RICHARDS FLOW ===============================================================
  0 2r: 1.61E-14 2x: 0.00E+00 2u: 0.00E+00 ir: 8.73E-16 iu: 0.00E+00 rsn:   0
  1 2r: 1.57E-14 2x: 7.78E+06 2u: 5.00E-10 ir: 8.45E-16 iu: 1.39E-11 rsn: stol

 Step     40 Time=  7.94521E-01 Dt=  2.73973E-02 [y] conv_reason: 4
  newton =   1 [      96] linear =   106 [      9303] cuts =  0 [   0]
  --> SNES Linear/Non-Linear Iterations = 106 / 1
  --> SNES Residual: 0.156867E-13 0.227938E-17 0.845316E-15
  --> max change: dpmx=   1.4552E-11

 --> appending to hdf5 output file: 2D_flow-steady-state.h5
      0.04 Seconds to write HDF5 file.

== RICHARDS FLOW ===============================================================
  0 2r: 1.57E-14 2x: 0.00E+00 2u: 0.00E+00 ir: 8.45E-16 iu: 0.00E+00 rsn:   0
  1 2r: 1.54E-14 2x: 7.78E+06 2u: 3.49E-10 ir: 8.59E-16 iu: 9.14E-12 rsn: stol

 Step     41 Time=  8.21918E-01 Dt=  2.73973E-02 [y] conv_reason: 4
  newton =   1 [      97] linear =    75 [      9378] cuts =  0 [   0]
  --> SNES Linear/Non-Linear Iterations = 75 / 1
  --> SNES Residual: 0.153705E-13 0.223344E-17 0.859464E-15
  --> max change: dpmx=   1.4552E-11

 --> appending to hdf5 output file: 2D_flow-steady-state.h5
      0.04 Seconds to write HDF5 file.

== RICHARDS FLOW ===============================================================
  0 2r: 1.54E-14 2x: 0.00E+00 2u: 0.00E+00 ir: 8.59E-16 iu: 0.00E+00 rsn:   0
  1 2r: 1.54E-14 2x: 7.78E+06 2u: 3.36E-10 ir: 8.53E-16 iu: 7.71E-12 rsn: stol

 Step     42 Time=  8.49315E-01 Dt=  2.73973E-02 [y] conv_reason: 4
  newton =   1 [      98] linear =    86 [      9464] cuts =  0 [   0]
  --> SNES Linear/Non-Linear Iterations = 86 / 1
  --> SNES Residual: 0.154313E-13 0.224227E-17 0.852578E-15
  --> max change: dpmx=   1.4552E-11

 --> appending to hdf5 output file: 2D_flow-steady-state.h5
      0.04 Seconds to write HDF5 file.

== RICHARDS FLOW ===============================================================
  0 2r: 1.54E-14 2x: 0.00E+00 2u: 0.00E+00 ir: 8.53E-16 iu: 0.00E+00 rsn:   0
  1 2r: 1.55E-14 2x: 7.78E+06 2u: 3.35E-10 ir: 8.53E-16 iu: 7.40E-12 rsn: stol

 Step     43 Time=  8.76712E-01 Dt=  2.73973E-02 [y] conv_reason: 4
  newton =   1 [      99] linear =    49 [      9513] cuts =  0 [   0]
  --> SNES Linear/Non-Linear Iterations = 49 / 1
  --> SNES Residual: 0.154688E-13 0.224771E-17 0.852578E-15
  --> max change: dpmx=   1.4552E-11

 --> appending to hdf5 output file: 2D_flow-steady-state.h5
      0.04 Seconds to write HDF5 file.

== RICHARDS FLOW ===============================================================
  0 2r: 1.55E-14 2x: 0.00E+00 2u: 0.00E+00 ir: 8.53E-16 iu: 0.00E+00 rsn:   0
  1 2r: 1.54E-14 2x: 7.78E+06 2u: 3.35E-10 ir: 8.53E-16 iu: 7.35E-12 rsn: stol

 Step     44 Time=  9.04110E-01 Dt=  2.73973E-02 [y] conv_reason: 4
  newton =   1 [     100] linear =    49 [      9562] cuts =  0 [   0]
  --> SNES Linear/Non-Linear Iterations = 49 / 1
  --> SNES Residual: 0.154405E-13 0.224361E-17 0.852578E-15
  --> max change: dpmx=   1.4552E-11

 --> appending to hdf5 output file: 2D_flow-steady-state.h5
      0.03 Seconds to write HDF5 file.

== RICHARDS FLOW ===============================================================
  0 2r: 1.54E-14 2x: 0.00E+00 2u: 0.00E+00 ir: 8.53E-16 iu: 0.00E+00 rsn:   0
  1 2r: 1.53E-14 2x: 7.78E+06 2u: 3.35E-10 ir: 8.53E-16 iu: 7.35E-12 rsn: stol

 Step     45 Time=  9.31507E-01 Dt=  2.73973E-02 [y] conv_reason: 4
  newton =   1 [     101] linear =    50 [      9612] cuts =  0 [   0]
  --> SNES Linear/Non-Linear Iterations = 50 / 1
  --> SNES Residual: 0.152985E-13 0.222297E-17 0.852578E-15
  --> max change: dpmx=   1.4552E-11

 --> appending to hdf5 output file: 2D_flow-steady-state.h5
      0.04 Seconds to write HDF5 file.

== RICHARDS FLOW ===============================================================
  0 2r: 1.53E-14 2x: 0.00E+00 2u: 0.00E+00 ir: 8.53E-16 iu: 0.00E+00 rsn:   0
  1 2r: 1.53E-14 2x: 7.78E+06 2u: 3.35E-10 ir: 8.53E-16 iu: 7.33E-12 rsn: stol

 Step     46 Time=  9.58904E-01 Dt=  2.73973E-02 [y] conv_reason: 4
  newton =   1 [     102] linear =    53 [      9665] cuts =  0 [   0]
  --> SNES Linear/Non-Linear Iterations = 53 / 1
  --> SNES Residual: 0.152631E-13 0.221783E-17 0.852578E-15
  --> max change: dpmx=   1.4552E-11

 --> appending to hdf5 output file: 2D_flow-steady-state.h5
      0.03 Seconds to write HDF5 file.

== RICHARDS FLOW ===============================================================
  0 2r: 1.53E-14 2x: 0.00E+00 2u: 0.00E+00 ir: 8.53E-16 iu: 0.00E+00 rsn:   0
  1 2r: 1.53E-14 2x: 7.78E+06 2u: 3.35E-10 ir: 9.08E-16 iu: 7.33E-12 rsn: stol

 Step     47 Time=  9.86301E-01 Dt=  2.73973E-02 [y] conv_reason: 4
  newton =   1 [     103] linear =    51 [      9716] cuts =  0 [   0]
  --> SNES Linear/Non-Linear Iterations = 51 / 1
  --> SNES Residual: 0.153082E-13 0.222439E-17 0.907895E-15
  --> max change: dpmx=   1.4552E-11

 --> appending to hdf5 output file: 2D_flow-steady-state.h5
      0.04 Seconds to write HDF5 file.

== RICHARDS FLOW ===============================================================
  0 2r: 1.53E-14 2x: 0.00E+00 2u: 0.00E+00 ir: 9.08E-16 iu: 0.00E+00 rsn:   0
  1 2r: 1.53E-14 2x: 7.78E+06 2u: 3.34E-10 ir: 9.08E-16 iu: 7.29E-12 rsn: stol

 Step     48 Time=  1.00000E+00 Dt=  1.36986E-02 [y] conv_reason: 4
  newton =   1 [     104] linear =    42 [      9758] cuts =  0 [   0]
  --> SNES Linear/Non-Linear Iterations = 42 / 1
  --> SNES Residual: 0.152982E-13 0.222293E-17 0.907894E-15
  --> max change: dpmx=   1.4552E-11

 --> appending to hdf5 output file: 2D_flow-steady-state.h5
      0.03 Seconds to write HDF5 file.

== RICHARDS FLOW ===============================================================
  0 2r: 1.53E-14 2x: 0.00E+00 2u: 0.00E+00 ir: 9.08E-16 iu: 0.00E+00 rsn:   0
  1 2r: 1.53E-14 2x: 7.78E+06 2u: 3.35E-10 ir: 9.08E-16 iu: 7.30E-12 rsn: stol

 Step     49 Time=  1.03858E+00 Dt=  3.85753E-02 [y] conv_reason: 4
  newton =   1 [     105] linear =    51 [      9809] cuts =  0 [   0]
  --> SNES Linear/Non-Linear Iterations = 51 / 1
  --> SNES Residual: 0.153432E-13 0.222946E-17 0.907895E-15
  --> max change: dpmx=   1.4552E-11

== RICHARDS FLOW ===============================================================
  0 2r: 1.53E-14 2x: 0.00E+00 2u: 0.00E+00 ir: 9.08E-16 iu: 0.00E+00 rsn:   0
  1 2r: 1.53E-14 2x: 7.78E+06 2u: 3.35E-10 ir: 8.53E-16 iu: 7.29E-12 rsn: stol

 Step     50 Time=  1.11573E+00 Dt=  7.71507E-02 [y] conv_reason: 4
  newton =   1 [     106] linear =    48 [      9857] cuts =  0 [   0]
  --> SNES Linear/Non-Linear Iterations = 48 / 1
  --> SNES Residual: 0.152746E-13 0.221951E-17 0.852578E-15
  --> max change: dpmx=   1.4552E-11

== RICHARDS FLOW ===============================================================
  0 2r: 1.53E-14 2x: 0.00E+00 2u: 0.00E+00 ir: 8.53E-16 iu: 0.00E+00 rsn:   0
  1 2r: 1.53E-14 2x: 7.78E+06 2u: 3.35E-10 ir: 9.08E-16 iu: 7.35E-12 rsn: stol

 Step     51 Time=  1.27397E+00 Dt=  1.58247E-01 [y] conv_reason: 4
  newton =   1 [     107] linear =    51 [      9908] cuts =  0 [   0]
  --> SNES Linear/Non-Linear Iterations = 51 / 1
  --> SNES Residual: 0.153394E-13 0.222892E-17 0.907895E-15
  --> max change: dpmx=   1.4552E-11

 --> appending to hdf5 output file: 2D_flow-steady-state.h5
      0.04 Seconds to write HDF5 file.

== RICHARDS FLOW ===============================================================
  0 2r: 1.53E-14 2x: 0.00E+00 2u: 0.00E+00 ir: 9.08E-16 iu: 0.00E+00 rsn:   0
  1 2r: 1.53E-14 2x: 7.78E+06 2u: 3.35E-10 ir: 8.53E-16 iu: 7.31E-12 rsn: stol

 Step     52 Time=  1.42827E+00 Dt=  1.54301E-01 [y] conv_reason: 4
  newton =   1 [     108] linear =    49 [      9957] cuts =  0 [   0]
  --> SNES Linear/Non-Linear Iterations = 49 / 1
  --> SNES Residual: 0.152739E-13 0.221939E-17 0.852578E-15
  --> max change: dpmx=   1.4552E-11

== RICHARDS FLOW ===============================================================
  0 2r: 1.53E-14 2x: 0.00E+00 2u: 0.00E+00 ir: 8.53E-16 iu: 0.00E+00 rsn:   0
  1 2r: 1.53E-14 2x: 7.78E+06 2u: 3.35E-10 ir: 9.08E-16 iu: 7.34E-12 rsn: stol

 Step     53 Time=  1.54795E+00 Dt=  1.19671E-01 [y] conv_reason: 4
  newton =   1 [     109] linear =    50 [     10007] cuts =  0 [   0]
  --> SNES Linear/Non-Linear Iterations = 50 / 1
  --> SNES Residual: 0.153428E-13 0.222942E-17 0.907895E-15
  --> max change: dpmx=   1.4552E-11

 --> appending to hdf5 output file: 2D_flow-steady-state.h5
      0.04 Seconds to write HDF5 file.

== RICHARDS FLOW ===============================================================
  0 2r: 1.53E-14 2x: 0.00E+00 2u: 0.00E+00 ir: 9.08E-16 iu: 0.00E+00 rsn:   0
  1 2r: 1.53E-14 2x: 7.78E+06 2u: 3.35E-10 ir: 8.53E-16 iu: 7.30E-12 rsn: stol

 Step     54 Time=  1.82192E+00 Dt=  2.73973E-01 [y] conv_reason: 4
  newton =   1 [     110] linear =    54 [     10061] cuts =  0 [   0]
  --> SNES Linear/Non-Linear Iterations = 54 / 1
  --> SNES Residual: 0.152738E-13 0.221939E-17 0.852578E-15
  --> max change: dpmx=   1.4552E-11

 --> appending to hdf5 output file: 2D_flow-steady-state.h5
      0.04 Seconds to write HDF5 file.

== RICHARDS FLOW ===============================================================
  0 2r: 1.53E-14 2x: 0.00E+00 2u: 0.00E+00 ir: 8.53E-16 iu: 0.00E+00 rsn:   0
  1 2r: 1.53E-14 2x: 7.78E+06 2u: 3.35E-10 ir: 9.08E-16 iu: 7.34E-12 rsn: stol

 Step     55 Time=  2.00000E+00 Dt=  1.78082E-01 [y] conv_reason: 4
  newton =   1 [     111] linear =    51 [     10112] cuts =  0 [   0]
  --> SNES Linear/Non-Linear Iterations = 51 / 1
  --> SNES Residual: 0.153423E-13 0.222934E-17 0.907895E-15
  --> max change: dpmx=   1.4552E-11

 --> appending to hdf5 output file: 2D_flow-steady-state.h5
      0.04 Seconds to write HDF5 file.

== RICHARDS FLOW ===============================================================
  0 2r: 1.53E-14 2x: 0.00E+00 2u: 0.00E+00 ir: 9.08E-16 iu: 0.00E+00 rsn:   0
  1 2r: 1.53E-14 2x: 7.78E+06 2u: 3.35E-10 ir: 8.53E-16 iu: 7.31E-12 rsn: stol

 Step     56 Time=  2.30860E+00 Dt=  3.08603E-01 [y] conv_reason: 4
  newton =   1 [     112] linear =    52 [     10164] cuts =  0 [   0]
  --> SNES Linear/Non-Linear Iterations = 52 / 1
  --> SNES Residual: 0.152657E-13 0.221820E-17 0.852578E-15
  --> max change: dpmx=   1.4552E-11

== RICHARDS FLOW ===============================================================
  0 2r: 1.53E-14 2x: 0.00E+00 2u: 0.00E+00 ir: 8.53E-16 iu: 0.00E+00 rsn:   0
  1 2r: 1.53E-14 2x: 7.78E+06 2u: 3.35E-10 ir: 9.08E-16 iu: 7.35E-12 rsn: stol

 Step     57 Time=  2.92581E+00 Dt=  6.17205E-01 [y] conv_reason: 4
  newton =   1 [     113] linear =    55 [     10219] cuts =  0 [   0]
  --> SNES Linear/Non-Linear Iterations = 55 / 1
  --> SNES Residual: 0.153394E-13 0.222892E-17 0.907895E-15
  --> max change: dpmx=   1.4552E-11

== RICHARDS FLOW ===============================================================
  0 2r: 1.53E-14 2x: 0.00E+00 2u: 0.00E+00 ir: 9.08E-16 iu: 0.00E+00 rsn:   0
  1 2r: 1.53E-14 2x: 7.78E+06 2u: 3.35E-10 ir: 9.08E-16 iu: 7.30E-12 rsn: stol

 Step     58 Time=  3.00000E+00 Dt=  7.41918E-02 [y] conv_reason: 4
  newton =   1 [     114] linear =    49 [     10268] cuts =  0 [   0]
  --> SNES Linear/Non-Linear Iterations = 49 / 1
  --> SNES Residual: 0.153293E-13 0.222745E-17 0.907895E-15
  --> max change: dpmx=   1.4552E-11

 --> appending to hdf5 output file: 2D_flow-steady-state.h5
      0.03 Seconds to write HDF5 file.

== RICHARDS FLOW ===============================================================
  0 2r: 1.53E-14 2x: 0.00E+00 2u: 0.00E+00 ir: 9.08E-16 iu: 0.00E+00 rsn:   0
  1 2r: 1.53E-14 2x: 7.78E+06 2u: 3.35E-10 ir: 9.08E-16 iu: 7.33E-12 rsn: stol

 Step     59 Time=  4.00000E+00 Dt=  1.00000E+00 [y] conv_reason: 4
  newton =   1 [     115] linear =    50 [     10318] cuts =  0 [   0]
  --> SNES Linear/Non-Linear Iterations = 50 / 1
  --> SNES Residual: 0.153262E-13 0.222700E-17 0.907895E-15
  --> max change: dpmx=   1.4552E-11

 --> appending to hdf5 output file: 2D_flow-steady-state.h5
      0.03 Seconds to write HDF5 file.

== RICHARDS FLOW ===============================================================
  0 2r: 1.53E-14 2x: 0.00E+00 2u: 0.00E+00 ir: 9.08E-16 iu: 0.00E+00 rsn:   0
  1 2r: 1.53E-14 2x: 7.78E+06 2u: 3.35E-10 ir: 8.53E-16 iu: 7.32E-12 rsn: stol

 Step     60 Time=  5.00000E+00 Dt=  1.00000E+00 [y] conv_reason: 4
  newton =   1 [     116] linear =    54 [     10372] cuts =  0 [   0]
  --> SNES Linear/Non-Linear Iterations = 54 / 1
  --> SNES Residual: 0.152577E-13 0.221705E-17 0.852578E-15
  --> max change: dpmx=   1.4552E-11

 --> appending to hdf5 output file: 2D_flow-steady-state.h5
      0.03 Seconds to write HDF5 file.

== RICHARDS FLOW ===============================================================
  0 2r: 1.53E-14 2x: 0.00E+00 2u: 0.00E+00 ir: 8.53E-16 iu: 0.00E+00 rsn:   0
  1 2r: 1.53E-14 2x: 7.78E+06 2u: 3.35E-10 ir: 9.08E-16 iu: 7.34E-12 rsn: stol

 Step     61 Time=  6.00000E+00 Dt=  1.00000E+00 [y] conv_reason: 4
  newton =   1 [     117] linear =    50 [     10422] cuts =  0 [   0]
  --> SNES Linear/Non-Linear Iterations = 50 / 1
  --> SNES Residual: 0.153386E-13 0.222880E-17 0.907895E-15
  --> max change: dpmx=   1.4552E-11

 --> appending to hdf5 output file: 2D_flow-steady-state.h5
      0.04 Seconds to write HDF5 file.

== RICHARDS FLOW ===============================================================
  0 2r: 1.53E-14 2x: 0.00E+00 2u: 0.00E+00 ir: 9.08E-16 iu: 0.00E+00 rsn:   0
  1 2r: 1.53E-14 2x: 7.78E+06 2u: 3.35E-10 ir: 9.08E-16 iu: 7.29E-12 rsn: stol

 Step     62 Time=  7.00000E+00 Dt=  1.00000E+00 [y] conv_reason: 4
  newton =   1 [     118] linear =    44 [     10466] cuts =  0 [   0]
  --> SNES Linear/Non-Linear Iterations = 44 / 1
  --> SNES Residual: 0.153259E-13 0.222695E-17 0.907895E-15
  --> max change: dpmx=   1.4552E-11

 --> appending to hdf5 output file: 2D_flow-steady-state.h5
      0.05 Seconds to write HDF5 file.

== RICHARDS FLOW ===============================================================
  0 2r: 1.53E-14 2x: 0.00E+00 2u: 0.00E+00 ir: 9.08E-16 iu: 0.00E+00 rsn:   0
  1 2r: 1.53E-14 2x: 7.78E+06 2u: 3.35E-10 ir: 9.08E-16 iu: 7.34E-12 rsn: stol

 Step     63 Time=  8.00000E+00 Dt=  1.00000E+00 [y] conv_reason: 4
  newton =   1 [     119] linear =    50 [     10516] cuts =  0 [   0]
  --> SNES Linear/Non-Linear Iterations = 50 / 1
  --> SNES Residual: 0.153380E-13 0.222871E-17 0.907895E-15
  --> max change: dpmx=   1.4552E-11

 --> appending to hdf5 output file: 2D_flow-steady-state.h5
      0.03 Seconds to write HDF5 file.

== RICHARDS FLOW ===============================================================
  0 2r: 1.53E-14 2x: 0.00E+00 2u: 0.00E+00 ir: 9.08E-16 iu: 0.00E+00 rsn:   0
  1 2r: 1.53E-14 2x: 7.78E+06 2u: 3.35E-10 ir: 8.53E-16 iu: 7.31E-12 rsn: stol

 Step     64 Time=  9.00000E+00 Dt=  1.00000E+00 [y] conv_reason: 4
  newton =   1 [     120] linear =    49 [     10565] cuts =  0 [   0]
  --> SNES Linear/Non-Linear Iterations = 49 / 1
  --> SNES Residual: 0.152976E-13 0.222284E-17 0.852578E-15
  --> max change: dpmx=   1.4552E-11

 --> appending to hdf5 output file: 2D_flow-steady-state.h5
      0.03 Seconds to write HDF5 file.

== RICHARDS FLOW ===============================================================
  0 2r: 1.53E-14 2x: 0.00E+00 2u: 0.00E+00 ir: 8.53E-16 iu: 0.00E+00 rsn:   0
  1 2r: 1.53E-14 2x: 7.78E+06 2u: 3.35E-10 ir: 9.08E-16 iu: 7.34E-12 rsn: stol

 Step     65 Time=  1.00000E+01 Dt=  1.00000E+00 [y] conv_reason: 4
  newton =   1 [     121] linear =    50 [     10615] cuts =  0 [   0]
  --> SNES Linear/Non-Linear Iterations = 50 / 1
  --> SNES Residual: 0.153380E-13 0.222871E-17 0.907895E-15
  --> max change: dpmx=   1.4552E-11

 --> appending to hdf5 output file: 2D_flow-steady-state.h5
      0.03 Seconds to write HDF5 file.

== RICHARDS FLOW ===============================================================
  0 2r: 1.53E-14 2x: 0.00E+00 2u: 0.00E+00 ir: 9.08E-16 iu: 0.00E+00 rsn:   0
  1 2r: 1.53E-14 2x: 7.78E+06 2u: 3.35E-10 ir: 8.53E-16 iu: 7.31E-12 rsn: stol

 Step     66 Time=  1.10000E+01 Dt=  1.00000E+00 [y] conv_reason: 4
  newton =   1 [     122] linear =    49 [     10664] cuts =  0 [   0]
  --> SNES Linear/Non-Linear Iterations = 49 / 1
  --> SNES Residual: 0.152976E-13 0.222284E-17 0.852578E-15
  --> max change: dpmx=   1.4552E-11

 --> appending to hdf5 output file: 2D_flow-steady-state.h5
      0.04 Seconds to write HDF5 file.

== RICHARDS FLOW ===============================================================
  0 2r: 1.53E-14 2x: 0.00E+00 2u: 0.00E+00 ir: 8.53E-16 iu: 0.00E+00 rsn:   0
  1 2r: 1.53E-14 2x: 7.78E+06 2u: 3.35E-10 ir: 9.08E-16 iu: 7.34E-12 rsn: stol

 Step     67 Time=  1.20000E+01 Dt=  1.00000E+00 [y] conv_reason: 4
  newton =   1 [     123] linear =    50 [     10714] cuts =  0 [   0]
  --> SNES Linear/Non-Linear Iterations = 50 / 1
  --> SNES Residual: 0.153380E-13 0.222871E-17 0.907895E-15
  --> max change: dpmx=   1.4552E-11

 --> appending to hdf5 output file: 2D_flow-steady-state.h5
      0.04 Seconds to write HDF5 file.

== RICHARDS FLOW ===============================================================
  0 2r: 1.53E-14 2x: 0.00E+00 2u: 0.00E+00 ir: 9.08E-16 iu: 0.00E+00 rsn:   0
  1 2r: 1.53E-14 2x: 7.78E+06 2u: 3.35E-10 ir: 8.53E-16 iu: 7.31E-12 rsn: stol

 Step     68 Time=  1.30000E+01 Dt=  1.00000E+00 [y] conv_reason: 4
  newton =   1 [     124] linear =    49 [     10763] cuts =  0 [   0]
  --> SNES Linear/Non-Linear Iterations = 49 / 1
  --> SNES Residual: 0.152976E-13 0.222284E-17 0.852578E-15
  --> max change: dpmx=   1.4552E-11

 --> appending to hdf5 output file: 2D_flow-steady-state.h5
      0.03 Seconds to write HDF5 file.

== RICHARDS FLOW ===============================================================
  0 2r: 1.53E-14 2x: 0.00E+00 2u: 0.00E+00 ir: 8.53E-16 iu: 0.00E+00 rsn:   0
  1 2r: 1.53E-14 2x: 7.78E+06 2u: 3.35E-10 ir: 9.08E-16 iu: 7.34E-12 rsn: stol

 Step     69 Time=  1.40000E+01 Dt=  1.00000E+00 [y] conv_reason: 4
  newton =   1 [     125] linear =    50 [     10813] cuts =  0 [   0]
  --> SNES Linear/Non-Linear Iterations = 50 / 1
  --> SNES Residual: 0.153380E-13 0.222871E-17 0.907895E-15
  --> max change: dpmx=   1.4552E-11

 --> appending to hdf5 output file: 2D_flow-steady-state.h5
      0.03 Seconds to write HDF5 file.

== RICHARDS FLOW ===============================================================
  0 2r: 1.53E-14 2x: 0.00E+00 2u: 0.00E+00 ir: 9.08E-16 iu: 0.00E+00 rsn:   0
  1 2r: 1.53E-14 2x: 7.78E+06 2u: 3.35E-10 ir: 8.53E-16 iu: 7.31E-12 rsn: stol

 Step     70 Time=  1.50000E+01 Dt=  1.00000E+00 [y] conv_reason: 4
  newton =   1 [     126] linear =    49 [     10862] cuts =  0 [   0]
  --> SNES Linear/Non-Linear Iterations = 49 / 1
  --> SNES Residual: 0.152976E-13 0.222284E-17 0.852578E-15
  --> max change: dpmx=   1.4552E-11

 --> appending to hdf5 output file: 2D_flow-steady-state.h5
      0.03 Seconds to write HDF5 file.

== RICHARDS FLOW ===============================================================
  0 2r: 1.53E-14 2x: 0.00E+00 2u: 0.00E+00 ir: 8.53E-16 iu: 0.00E+00 rsn:   0
  1 2r: 1.53E-14 2x: 7.78E+06 2u: 3.35E-10 ir: 9.08E-16 iu: 7.34E-12 rsn: stol

 Step     71 Time=  1.60000E+01 Dt=  1.00000E+00 [y] conv_reason: 4
  newton =   1 [     127] linear =    50 [     10912] cuts =  0 [   0]
  --> SNES Linear/Non-Linear Iterations = 50 / 1
  --> SNES Residual: 0.153380E-13 0.222871E-17 0.907895E-15
  --> max change: dpmx=   1.4552E-11

 --> appending to hdf5 output file: 2D_flow-steady-state.h5
      0.03 Seconds to write HDF5 file.

== RICHARDS FLOW ===============================================================
  0 2r: 1.53E-14 2x: 0.00E+00 2u: 0.00E+00 ir: 9.08E-16 iu: 0.00E+00 rsn:   0
  1 2r: 1.53E-14 2x: 7.78E+06 2u: 3.35E-10 ir: 8.53E-16 iu: 7.31E-12 rsn: stol

 Step     72 Time=  1.70000E+01 Dt=  1.00000E+00 [y] conv_reason: 4
  newton =   1 [     128] linear =    49 [     10961] cuts =  0 [   0]
  --> SNES Linear/Non-Linear Iterations = 49 / 1
  --> SNES Residual: 0.152976E-13 0.222284E-17 0.852578E-15
  --> max change: dpmx=   1.4552E-11

 --> appending to hdf5 output file: 2D_flow-steady-state.h5
      0.04 Seconds to write HDF5 file.

== RICHARDS FLOW ===============================================================
  0 2r: 1.53E-14 2x: 0.00E+00 2u: 0.00E+00 ir: 8.53E-16 iu: 0.00E+00 rsn:   0
  1 2r: 1.53E-14 2x: 7.78E+06 2u: 3.35E-10 ir: 9.08E-16 iu: 7.34E-12 rsn: stol

 Step     73 Time=  1.80000E+01 Dt=  1.00000E+00 [y] conv_reason: 4
  newton =   1 [     129] linear =    50 [     11011] cuts =  0 [   0]
  --> SNES Linear/Non-Linear Iterations = 50 / 1
  --> SNES Residual: 0.153380E-13 0.222871E-17 0.907895E-15
  --> max change: dpmx=   1.4552E-11

 --> appending to hdf5 output file: 2D_flow-steady-state.h5
      0.04 Seconds to write HDF5 file.

== RICHARDS FLOW ===============================================================
  0 2r: 1.53E-14 2x: 0.00E+00 2u: 0.00E+00 ir: 9.08E-16 iu: 0.00E+00 rsn:   0
  1 2r: 1.53E-14 2x: 7.78E+06 2u: 3.35E-10 ir: 8.53E-16 iu: 7.31E-12 rsn: stol

 Step     74 Time=  1.90000E+01 Dt=  1.00000E+00 [y] conv_reason: 4
  newton =   1 [     130] linear =    49 [     11060] cuts =  0 [   0]
  --> SNES Linear/Non-Linear Iterations = 49 / 1
  --> SNES Residual: 0.152976E-13 0.222284E-17 0.852578E-15
  --> max change: dpmx=   1.4552E-11

 --> appending to hdf5 output file: 2D_flow-steady-state.h5
      0.04 Seconds to write HDF5 file.

== RICHARDS FLOW ===============================================================
  0 2r: 1.53E-14 2x: 0.00E+00 2u: 0.00E+00 ir: 8.53E-16 iu: 0.00E+00 rsn:   0
  1 2r: 1.53E-14 2x: 7.78E+06 2u: 3.35E-10 ir: 9.08E-16 iu: 7.34E-12 rsn: stol

 Step     75 Time=  2.00000E+01 Dt=  1.00000E+00 [y] conv_reason: 4
  newton =   1 [     131] linear =    50 [     11110] cuts =  0 [   0]
  --> SNES Linear/Non-Linear Iterations = 50 / 1
  --> SNES Residual: 0.153380E-13 0.222871E-17 0.907895E-15
  --> max change: dpmx=   1.4552E-11

 --> appending to hdf5 output file: 2D_flow-steady-state.h5
      0.04 Seconds to write HDF5 file.

== RICHARDS FLOW ===============================================================
  0 2r: 1.53E-14 2x: 0.00E+00 2u: 0.00E+00 ir: 9.08E-16 iu: 0.00E+00 rsn:   0
  1 2r: 1.53E-14 2x: 7.78E+06 2u: 3.35E-10 ir: 8.53E-16 iu: 7.31E-12 rsn: stol

 Step     76 Time=  2.10000E+01 Dt=  1.00000E+00 [y] conv_reason: 4
  newton =   1 [     132] linear =    49 [     11159] cuts =  0 [   0]
  --> SNES Linear/Non-Linear Iterations = 49 / 1
  --> SNES Residual: 0.152976E-13 0.222284E-17 0.852578E-15
  --> max change: dpmx=   1.4552E-11

 --> appending to hdf5 output file: 2D_flow-steady-state.h5
      0.03 Seconds to write HDF5 file.

== RICHARDS FLOW ===============================================================
  0 2r: 1.53E-14 2x: 0.00E+00 2u: 0.00E+00 ir: 8.53E-16 iu: 0.00E+00 rsn:   0
  1 2r: 1.53E-14 2x: 7.78E+06 2u: 3.35E-10 ir: 9.08E-16 iu: 7.34E-12 rsn: stol

 Step     77 Time=  2.20000E+01 Dt=  1.00000E+00 [y] conv_reason: 4
  newton =   1 [     133] linear =    50 [     11209] cuts =  0 [   0]
  --> SNES Linear/Non-Linear Iterations = 50 / 1
  --> SNES Residual: 0.153380E-13 0.222871E-17 0.907895E-15
  --> max change: dpmx=   1.4552E-11

 --> appending to hdf5 output file: 2D_flow-steady-state.h5
      0.03 Seconds to write HDF5 file.

== RICHARDS FLOW ===============================================================
  0 2r: 1.53E-14 2x: 0.00E+00 2u: 0.00E+00 ir: 9.08E-16 iu: 0.00E+00 rsn:   0
  1 2r: 1.53E-14 2x: 7.78E+06 2u: 3.35E-10 ir: 8.53E-16 iu: 7.31E-12 rsn: stol

 Step     78 Time=  2.30000E+01 Dt=  1.00000E+00 [y] conv_reason: 4
  newton =   1 [     134] linear =    49 [     11258] cuts =  0 [   0]
  --> SNES Linear/Non-Linear Iterations = 49 / 1
  --> SNES Residual: 0.152976E-13 0.222284E-17 0.852578E-15
  --> max change: dpmx=   1.4552E-11

 --> appending to hdf5 output file: 2D_flow-steady-state.h5
      0.04 Seconds to write HDF5 file.

== RICHARDS FLOW ===============================================================
  0 2r: 1.53E-14 2x: 0.00E+00 2u: 0.00E+00 ir: 8.53E-16 iu: 0.00E+00 rsn:   0
  1 2r: 1.53E-14 2x: 7.78E+06 2u: 3.35E-10 ir: 9.08E-16 iu: 7.34E-12 rsn: stol

 Step     79 Time=  2.40000E+01 Dt=  1.00000E+00 [y] conv_reason: 4
  newton =   1 [     135] linear =    50 [     11308] cuts =  0 [   0]
  --> SNES Linear/Non-Linear Iterations = 50 / 1
  --> SNES Residual: 0.153380E-13 0.222871E-17 0.907895E-15
  --> max change: dpmx=   1.4552E-11

 --> appending to hdf5 output file: 2D_flow-steady-state.h5
      0.03 Seconds to write HDF5 file.

== RICHARDS FLOW ===============================================================
  0 2r: 1.53E-14 2x: 0.00E+00 2u: 0.00E+00 ir: 9.08E-16 iu: 0.00E+00 rsn:   0
  1 2r: 1.53E-14 2x: 7.78E+06 2u: 3.35E-10 ir: 8.53E-16 iu: 7.31E-12 rsn: stol

 Step     80 Time=  2.50000E+01 Dt=  1.00000E+00 [y] conv_reason: 4
  newton =   1 [     136] linear =    49 [     11357] cuts =  0 [   0]
  --> SNES Linear/Non-Linear Iterations = 49 / 1
  --> SNES Residual: 0.152976E-13 0.222284E-17 0.852578E-15
  --> max change: dpmx=   1.4552E-11

 --> appending to hdf5 output file: 2D_flow-steady-state.h5
      0.03 Seconds to write HDF5 file.

== RICHARDS FLOW ===============================================================
  0 2r: 1.53E-14 2x: 0.00E+00 2u: 0.00E+00 ir: 8.53E-16 iu: 0.00E+00 rsn:   0
  1 2r: 1.53E-14 2x: 7.78E+06 2u: 3.35E-10 ir: 9.08E-16 iu: 7.34E-12 rsn: stol

 Step     81 Time=  2.60000E+01 Dt=  1.00000E+00 [y] conv_reason: 4
  newton =   1 [     137] linear =    50 [     11407] cuts =  0 [   0]
  --> SNES Linear/Non-Linear Iterations = 50 / 1
  --> SNES Residual: 0.153380E-13 0.222871E-17 0.907895E-15
  --> max change: dpmx=   1.4552E-11

 --> appending to hdf5 output file: 2D_flow-steady-state.h5
      0.04 Seconds to write HDF5 file.

== RICHARDS FLOW ===============================================================
  0 2r: 1.53E-14 2x: 0.00E+00 2u: 0.00E+00 ir: 9.08E-16 iu: 0.00E+00 rsn:   0
  1 2r: 1.53E-14 2x: 7.78E+06 2u: 3.35E-10 ir: 8.53E-16 iu: 7.31E-12 rsn: stol

 Step     82 Time=  2.70000E+01 Dt=  1.00000E+00 [y] conv_reason: 4
  newton =   1 [     138] linear =    49 [     11456] cuts =  0 [   0]
  --> SNES Linear/Non-Linear Iterations = 49 / 1
  --> SNES Residual: 0.152976E-13 0.222284E-17 0.852578E-15
  --> max change: dpmx=   1.4552E-11

 --> appending to hdf5 output file: 2D_flow-steady-state.h5
      0.04 Seconds to write HDF5 file.

== RICHARDS FLOW ===============================================================
  0 2r: 1.53E-14 2x: 0.00E+00 2u: 0.00E+00 ir: 8.53E-16 iu: 0.00E+00 rsn:   0
  1 2r: 1.53E-14 2x: 7.78E+06 2u: 3.35E-10 ir: 9.08E-16 iu: 7.34E-12 rsn: stol

 Step     83 Time=  2.80000E+01 Dt=  1.00000E+00 [y] conv_reason: 4
  newton =   1 [     139] linear =    50 [     11506] cuts =  0 [   0]
  --> SNES Linear/Non-Linear Iterations = 50 / 1
  --> SNES Residual: 0.153380E-13 0.222871E-17 0.907895E-15
  --> max change: dpmx=   1.4552E-11

 --> appending to hdf5 output file: 2D_flow-steady-state.h5
      0.03 Seconds to write HDF5 file.

== RICHARDS FLOW ===============================================================
  0 2r: 1.53E-14 2x: 0.00E+00 2u: 0.00E+00 ir: 9.08E-16 iu: 0.00E+00 rsn:   0
  1 2r: 1.53E-14 2x: 7.78E+06 2u: 3.35E-10 ir: 8.53E-16 iu: 7.31E-12 rsn: stol

 Step     84 Time=  2.90000E+01 Dt=  1.00000E+00 [y] conv_reason: 4
  newton =   1 [     140] linear =    49 [     11555] cuts =  0 [   0]
  --> SNES Linear/Non-Linear Iterations = 49 / 1
  --> SNES Residual: 0.152976E-13 0.222284E-17 0.852578E-15
  --> max change: dpmx=   1.4552E-11

 --> appending to hdf5 output file: 2D_flow-steady-state.h5
      0.03 Seconds to write HDF5 file.

== RICHARDS FLOW ===============================================================
  0 2r: 1.53E-14 2x: 0.00E+00 2u: 0.00E+00 ir: 8.53E-16 iu: 0.00E+00 rsn:   0
  1 2r: 1.53E-14 2x: 7.78E+06 2u: 3.35E-10 ir: 9.08E-16 iu: 7.34E-12 rsn: stol

 Step     85 Time=  3.00000E+01 Dt=  1.00000E+00 [y] conv_reason: 4
  newton =   1 [     141] linear =    50 [     11605] cuts =  0 [   0]
  --> SNES Linear/Non-Linear Iterations = 50 / 1
  --> SNES Residual: 0.153380E-13 0.222871E-17 0.907895E-15
  --> max change: dpmx=   1.4552E-11

 --> appending to hdf5 output file: 2D_flow-steady-state.h5
      0.03 Seconds to write HDF5 file.

== RICHARDS FLOW ===============================================================
  0 2r: 1.53E-14 2x: 0.00E+00 2u: 0.00E+00 ir: 9.08E-16 iu: 0.00E+00 rsn:   0
  1 2r: 1.53E-14 2x: 7.78E+06 2u: 3.35E-10 ir: 8.53E-16 iu: 7.31E-12 rsn: stol

 Step     86 Time=  3.10000E+01 Dt=  1.00000E+00 [y] conv_reason: 4
  newton =   1 [     142] linear =    49 [     11654] cuts =  0 [   0]
  --> SNES Linear/Non-Linear Iterations = 49 / 1
  --> SNES Residual: 0.152976E-13 0.222284E-17 0.852578E-15
  --> max change: dpmx=   1.4552E-11

 --> appending to hdf5 output file: 2D_flow-steady-state.h5
      0.03 Seconds to write HDF5 file.

== RICHARDS FLOW ===============================================================
  0 2r: 1.53E-14 2x: 0.00E+00 2u: 0.00E+00 ir: 8.53E-16 iu: 0.00E+00 rsn:   0
  1 2r: 1.53E-14 2x: 7.78E+06 2u: 3.35E-10 ir: 9.08E-16 iu: 7.34E-12 rsn: stol

 Step     87 Time=  3.20000E+01 Dt=  1.00000E+00 [y] conv_reason: 4
  newton =   1 [     143] linear =    50 [     11704] cuts =  0 [   0]
  --> SNES Linear/Non-Linear Iterations = 50 / 1
  --> SNES Residual: 0.153380E-13 0.222871E-17 0.907895E-15
  --> max change: dpmx=   1.4552E-11

 --> appending to hdf5 output file: 2D_flow-steady-state.h5
      0.03 Seconds to write HDF5 file.

== RICHARDS FLOW ===============================================================
  0 2r: 1.53E-14 2x: 0.00E+00 2u: 0.00E+00 ir: 9.08E-16 iu: 0.00E+00 rsn:   0
  1 2r: 1.53E-14 2x: 7.78E+06 2u: 3.35E-10 ir: 8.53E-16 iu: 7.31E-12 rsn: stol

 Step     88 Time=  3.30000E+01 Dt=  1.00000E+00 [y] conv_reason: 4
  newton =   1 [     144] linear =    49 [     11753] cuts =  0 [   0]
  --> SNES Linear/Non-Linear Iterations = 49 / 1
  --> SNES Residual: 0.152976E-13 0.222284E-17 0.852578E-15
  --> max change: dpmx=   1.4552E-11

 --> appending to hdf5 output file: 2D_flow-steady-state.h5
      0.04 Seconds to write HDF5 file.

== RICHARDS FLOW ===============================================================
  0 2r: 1.53E-14 2x: 0.00E+00 2u: 0.00E+00 ir: 8.53E-16 iu: 0.00E+00 rsn:   0
  1 2r: 1.53E-14 2x: 7.78E+06 2u: 3.35E-10 ir: 9.08E-16 iu: 7.34E-12 rsn: stol

 Step     89 Time=  3.40000E+01 Dt=  1.00000E+00 [y] conv_reason: 4
  newton =   1 [     145] linear =    50 [     11803] cuts =  0 [   0]
  --> SNES Linear/Non-Linear Iterations = 50 / 1
  --> SNES Residual: 0.153380E-13 0.222871E-17 0.907895E-15
  --> max change: dpmx=   1.4552E-11

 --> appending to hdf5 output file: 2D_flow-steady-state.h5
      0.04 Seconds to write HDF5 file.

== RICHARDS FLOW ===============================================================
  0 2r: 1.53E-14 2x: 0.00E+00 2u: 0.00E+00 ir: 9.08E-16 iu: 0.00E+00 rsn:   0
  1 2r: 1.53E-14 2x: 7.78E+06 2u: 3.35E-10 ir: 8.53E-16 iu: 7.31E-12 rsn: stol

 Step     90 Time=  3.50000E+01 Dt=  1.00000E+00 [y] conv_reason: 4
  newton =   1 [     146] linear =    49 [     11852] cuts =  0 [   0]
  --> SNES Linear/Non-Linear Iterations = 49 / 1
  --> SNES Residual: 0.152976E-13 0.222284E-17 0.852578E-15
  --> max change: dpmx=   1.4552E-11

 --> appending to hdf5 output file: 2D_flow-steady-state.h5
      0.03 Seconds to write HDF5 file.

== RICHARDS FLOW ===============================================================
  0 2r: 1.53E-14 2x: 0.00E+00 2u: 0.00E+00 ir: 8.53E-16 iu: 0.00E+00 rsn:   0
  1 2r: 1.53E-14 2x: 7.78E+06 2u: 3.35E-10 ir: 9.08E-16 iu: 7.34E-12 rsn: stol

 Step     91 Time=  3.60000E+01 Dt=  1.00000E+00 [y] conv_reason: 4
  newton =   1 [     147] linear =    50 [     11902] cuts =  0 [   0]
  --> SNES Linear/Non-Linear Iterations = 50 / 1
  --> SNES Residual: 0.153380E-13 0.222871E-17 0.907895E-15
  --> max change: dpmx=   1.4552E-11

 --> appending to hdf5 output file: 2D_flow-steady-state.h5
      0.04 Seconds to write HDF5 file.

== RICHARDS FLOW ===============================================================
  0 2r: 1.53E-14 2x: 0.00E+00 2u: 0.00E+00 ir: 9.08E-16 iu: 0.00E+00 rsn:   0
  1 2r: 1.53E-14 2x: 7.78E+06 2u: 3.35E-10 ir: 8.53E-16 iu: 7.31E-12 rsn: stol

 Step     92 Time=  3.70000E+01 Dt=  1.00000E+00 [y] conv_reason: 4
  newton =   1 [     148] linear =    49 [     11951] cuts =  0 [   0]
  --> SNES Linear/Non-Linear Iterations = 49 / 1
  --> SNES Residual: 0.152976E-13 0.222284E-17 0.852578E-15
  --> max change: dpmx=   1.4552E-11

 --> appending to hdf5 output file: 2D_flow-steady-state.h5
      0.04 Seconds to write HDF5 file.

== RICHARDS FLOW ===============================================================
  0 2r: 1.53E-14 2x: 0.00E+00 2u: 0.00E+00 ir: 8.53E-16 iu: 0.00E+00 rsn:   0
  1 2r: 1.53E-14 2x: 7.78E+06 2u: 3.35E-10 ir: 9.08E-16 iu: 7.34E-12 rsn: stol

 Step     93 Time=  3.80000E+01 Dt=  1.00000E+00 [y] conv_reason: 4
  newton =   1 [     149] linear =    50 [     12001] cuts =  0 [   0]
  --> SNES Linear/Non-Linear Iterations = 50 / 1
  --> SNES Residual: 0.153380E-13 0.222871E-17 0.907895E-15
  --> max change: dpmx=   1.4552E-11

 --> appending to hdf5 output file: 2D_flow-steady-state.h5
      0.04 Seconds to write HDF5 file.

== RICHARDS FLOW ===============================================================
  0 2r: 1.53E-14 2x: 0.00E+00 2u: 0.00E+00 ir: 9.08E-16 iu: 0.00E+00 rsn:   0
  1 2r: 1.53E-14 2x: 7.78E+06 2u: 3.35E-10 ir: 8.53E-16 iu: 7.31E-12 rsn: stol

 Step     94 Time=  3.90000E+01 Dt=  1.00000E+00 [y] conv_reason: 4
  newton =   1 [     150] linear =    49 [     12050] cuts =  0 [   0]
  --> SNES Linear/Non-Linear Iterations = 49 / 1
  --> SNES Residual: 0.152976E-13 0.222284E-17 0.852578E-15
  --> max change: dpmx=   1.4552E-11

 --> appending to hdf5 output file: 2D_flow-steady-state.h5
      0.04 Seconds to write HDF5 file.

== RICHARDS FLOW ===============================================================
  0 2r: 1.53E-14 2x: 0.00E+00 2u: 0.00E+00 ir: 8.53E-16 iu: 0.00E+00 rsn:   0
  1 2r: 1.53E-14 2x: 7.78E+06 2u: 3.35E-10 ir: 9.08E-16 iu: 7.34E-12 rsn: stol

 Step     95 Time=  4.00000E+01 Dt=  1.00000E+00 [y] conv_reason: 4
  newton =   1 [     151] linear =    50 [     12100] cuts =  0 [   0]
  --> SNES Linear/Non-Linear Iterations = 50 / 1
  --> SNES Residual: 0.153380E-13 0.222871E-17 0.907895E-15
  --> max change: dpmx=   1.4552E-11

 --> appending to hdf5 output file: 2D_flow-steady-state.h5
      0.03 Seconds to write HDF5 file.

== RICHARDS FLOW ===============================================================
  0 2r: 1.53E-14 2x: 0.00E+00 2u: 0.00E+00 ir: 9.08E-16 iu: 0.00E+00 rsn:   0
  1 2r: 1.53E-14 2x: 7.78E+06 2u: 3.35E-10 ir: 8.53E-16 iu: 7.31E-12 rsn: stol

 Step     96 Time=  4.10000E+01 Dt=  1.00000E+00 [y] conv_reason: 4
  newton =   1 [     152] linear =    49 [     12149] cuts =  0 [   0]
  --> SNES Linear/Non-Linear Iterations = 49 / 1
  --> SNES Residual: 0.152976E-13 0.222284E-17 0.852578E-15
  --> max change: dpmx=   1.4552E-11

 --> appending to hdf5 output file: 2D_flow-steady-state.h5
      0.04 Seconds to write HDF5 file.

== RICHARDS FLOW ===============================================================
  0 2r: 1.53E-14 2x: 0.00E+00 2u: 0.00E+00 ir: 8.53E-16 iu: 0.00E+00 rsn:   0
  1 2r: 1.53E-14 2x: 7.78E+06 2u: 3.35E-10 ir: 9.08E-16 iu: 7.34E-12 rsn: stol

 Step     97 Time=  4.20000E+01 Dt=  1.00000E+00 [y] conv_reason: 4
  newton =   1 [     153] linear =    50 [     12199] cuts =  0 [   0]
  --> SNES Linear/Non-Linear Iterations = 50 / 1
  --> SNES Residual: 0.153380E-13 0.222871E-17 0.907895E-15
  --> max change: dpmx=   1.4552E-11

 --> appending to hdf5 output file: 2D_flow-steady-state.h5
      0.03 Seconds to write HDF5 file.

== RICHARDS FLOW ===============================================================
  0 2r: 1.53E-14 2x: 0.00E+00 2u: 0.00E+00 ir: 9.08E-16 iu: 0.00E+00 rsn:   0
  1 2r: 1.53E-14 2x: 7.78E+06 2u: 3.35E-10 ir: 8.53E-16 iu: 7.31E-12 rsn: stol

 Step     98 Time=  4.30000E+01 Dt=  1.00000E+00 [y] conv_reason: 4
  newton =   1 [     154] linear =    49 [     12248] cuts =  0 [   0]
  --> SNES Linear/Non-Linear Iterations = 49 / 1
  --> SNES Residual: 0.152976E-13 0.222284E-17 0.852578E-15
  --> max change: dpmx=   1.4552E-11

 --> appending to hdf5 output file: 2D_flow-steady-state.h5
      0.03 Seconds to write HDF5 file.

== RICHARDS FLOW ===============================================================
  0 2r: 1.53E-14 2x: 0.00E+00 2u: 0.00E+00 ir: 8.53E-16 iu: 0.00E+00 rsn:   0
  1 2r: 1.53E-14 2x: 7.78E+06 2u: 3.35E-10 ir: 9.08E-16 iu: 7.34E-12 rsn: stol

 Step     99 Time=  4.40000E+01 Dt=  1.00000E+00 [y] conv_reason: 4
  newton =   1 [     155] linear =    50 [     12298] cuts =  0 [   0]
  --> SNES Linear/Non-Linear Iterations = 50 / 1
  --> SNES Residual: 0.153380E-13 0.222871E-17 0.907895E-15
  --> max change: dpmx=   1.4552E-11

 --> appending to hdf5 output file: 2D_flow-steady-state.h5
      0.04 Seconds to write HDF5 file.

== RICHARDS FLOW ===============================================================
  0 2r: 1.53E-14 2x: 0.00E+00 2u: 0.00E+00 ir: 9.08E-16 iu: 0.00E+00 rsn:   0
  1 2r: 1.53E-14 2x: 7.78E+06 2u: 3.35E-10 ir: 8.53E-16 iu: 7.31E-12 rsn: stol

 Step    100 Time=  4.50000E+01 Dt=  1.00000E+00 [y] conv_reason: 4
  newton =   1 [     156] linear =    49 [     12347] cuts =  0 [   0]
  --> SNES Linear/Non-Linear Iterations = 49 / 1
  --> SNES Residual: 0.152976E-13 0.222284E-17 0.852578E-15
  --> max change: dpmx=   1.4552E-11

 --> appending to hdf5 output file: 2D_flow-steady-state.h5
      0.04 Seconds to write HDF5 file.

== RICHARDS FLOW ===============================================================
  0 2r: 1.53E-14 2x: 0.00E+00 2u: 0.00E+00 ir: 8.53E-16 iu: 0.00E+00 rsn:   0
  1 2r: 1.53E-14 2x: 7.78E+06 2u: 3.35E-10 ir: 9.08E-16 iu: 7.34E-12 rsn: stol

 Step    101 Time=  4.60000E+01 Dt=  1.00000E+00 [y] conv_reason: 4
  newton =   1 [     157] linear =    50 [     12397] cuts =  0 [   0]
  --> SNES Linear/Non-Linear Iterations = 50 / 1
  --> SNES Residual: 0.153380E-13 0.222871E-17 0.907895E-15
  --> max change: dpmx=   1.4552E-11

 --> appending to hdf5 output file: 2D_flow-steady-state.h5
      0.03 Seconds to write HDF5 file.

== RICHARDS FLOW ===============================================================
  0 2r: 1.53E-14 2x: 0.00E+00 2u: 0.00E+00 ir: 9.08E-16 iu: 0.00E+00 rsn:   0
  1 2r: 1.53E-14 2x: 7.78E+06 2u: 3.35E-10 ir: 8.53E-16 iu: 7.31E-12 rsn: stol

 Step    102 Time=  4.70000E+01 Dt=  1.00000E+00 [y] conv_reason: 4
  newton =   1 [     158] linear =    49 [     12446] cuts =  0 [   0]
  --> SNES Linear/Non-Linear Iterations = 49 / 1
  --> SNES Residual: 0.152976E-13 0.222284E-17 0.852578E-15
  --> max change: dpmx=   1.4552E-11

 --> appending to hdf5 output file: 2D_flow-steady-state.h5
      0.04 Seconds to write HDF5 file.

== RICHARDS FLOW ===============================================================
  0 2r: 1.53E-14 2x: 0.00E+00 2u: 0.00E+00 ir: 8.53E-16 iu: 0.00E+00 rsn:   0
  1 2r: 1.53E-14 2x: 7.78E+06 2u: 3.35E-10 ir: 9.08E-16 iu: 7.34E-12 rsn: stol

 Step    103 Time=  4.80000E+01 Dt=  1.00000E+00 [y] conv_reason: 4
  newton =   1 [     159] linear =    50 [     12496] cuts =  0 [   0]
  --> SNES Linear/Non-Linear Iterations = 50 / 1
  --> SNES Residual: 0.153380E-13 0.222871E-17 0.907895E-15
  --> max change: dpmx=   1.4552E-11

 --> appending to hdf5 output file: 2D_flow-steady-state.h5
      0.03 Seconds to write HDF5 file.

== RICHARDS FLOW ===============================================================
  0 2r: 1.53E-14 2x: 0.00E+00 2u: 0.00E+00 ir: 9.08E-16 iu: 0.00E+00 rsn:   0
  1 2r: 1.53E-14 2x: 7.78E+06 2u: 3.35E-10 ir: 8.53E-16 iu: 7.31E-12 rsn: stol

 Step    104 Time=  4.90000E+01 Dt=  1.00000E+00 [y] conv_reason: 4
  newton =   1 [     160] linear =    49 [     12545] cuts =  0 [   0]
  --> SNES Linear/Non-Linear Iterations = 49 / 1
  --> SNES Residual: 0.152976E-13 0.222284E-17 0.852578E-15
  --> max change: dpmx=   1.4552E-11

 --> appending to hdf5 output file: 2D_flow-steady-state.h5
      0.04 Seconds to write HDF5 file.

== RICHARDS FLOW ===============================================================
  0 2r: 1.53E-14 2x: 0.00E+00 2u: 0.00E+00 ir: 8.53E-16 iu: 0.00E+00 rsn:   0
  1 2r: 1.53E-14 2x: 7.78E+06 2u: 3.35E-10 ir: 9.08E-16 iu: 7.34E-12 rsn: stol

 Step    105 Time=  5.00000E+01 Dt=  1.00000E+00 [y] conv_reason: 4
  newton =   1 [     161] linear =    50 [     12595] cuts =  0 [   0]
  --> SNES Linear/Non-Linear Iterations = 50 / 1
  --> SNES Residual: 0.153380E-13 0.222871E-17 0.907895E-15
  --> max change: dpmx=   1.4552E-11

 --> appending to hdf5 output file: 2D_flow-steady-state.h5
      0.04 Seconds to write HDF5 file.

== RICHARDS FLOW ===============================================================
  0 2r: 1.53E-14 2x: 0.00E+00 2u: 0.00E+00 ir: 9.08E-16 iu: 0.00E+00 rsn:   0
  1 2r: 1.53E-14 2x: 7.78E+06 2u: 3.35E-10 ir: 8.53E-16 iu: 7.31E-12 rsn: stol

 Step    106 Time=  5.10000E+01 Dt=  1.00000E+00 [y] conv_reason: 4
  newton =   1 [     162] linear =    49 [     12644] cuts =  0 [   0]
  --> SNES Linear/Non-Linear Iterations = 49 / 1
  --> SNES Residual: 0.152976E-13 0.222284E-17 0.852578E-15
  --> max change: dpmx=   1.4552E-11

 --> appending to hdf5 output file: 2D_flow-steady-state.h5
      0.04 Seconds to write HDF5 file.

== RICHARDS FLOW ===============================================================
  0 2r: 1.53E-14 2x: 0.00E+00 2u: 0.00E+00 ir: 8.53E-16 iu: 0.00E+00 rsn:   0
  1 2r: 1.53E-14 2x: 7.78E+06 2u: 3.35E-10 ir: 9.08E-16 iu: 7.34E-12 rsn: stol

 Step    107 Time=  5.20000E+01 Dt=  1.00000E+00 [y] conv_reason: 4
  newton =   1 [     163] linear =    50 [     12694] cuts =  0 [   0]
  --> SNES Linear/Non-Linear Iterations = 50 / 1
  --> SNES Residual: 0.153380E-13 0.222871E-17 0.907895E-15
  --> max change: dpmx=   1.4552E-11

 --> appending to hdf5 output file: 2D_flow-steady-state.h5
      0.04 Seconds to write HDF5 file.

== RICHARDS FLOW ===============================================================
  0 2r: 1.53E-14 2x: 0.00E+00 2u: 0.00E+00 ir: 9.08E-16 iu: 0.00E+00 rsn:   0
  1 2r: 1.53E-14 2x: 7.78E+06 2u: 3.35E-10 ir: 8.53E-16 iu: 7.31E-12 rsn: stol

 Step    108 Time=  5.30000E+01 Dt=  1.00000E+00 [y] conv_reason: 4
  newton =   1 [     164] linear =    49 [     12743] cuts =  0 [   0]
  --> SNES Linear/Non-Linear Iterations = 49 / 1
  --> SNES Residual: 0.152976E-13 0.222284E-17 0.852578E-15
  --> max change: dpmx=   1.4552E-11

 --> appending to hdf5 output file: 2D_flow-steady-state.h5
      0.04 Seconds to write HDF5 file.

== RICHARDS FLOW ===============================================================
  0 2r: 1.53E-14 2x: 0.00E+00 2u: 0.00E+00 ir: 8.53E-16 iu: 0.00E+00 rsn:   0
  1 2r: 1.53E-14 2x: 7.78E+06 2u: 3.35E-10 ir: 9.08E-16 iu: 7.34E-12 rsn: stol

 Step    109 Time=  5.40000E+01 Dt=  1.00000E+00 [y] conv_reason: 4
  newton =   1 [     165] linear =    50 [     12793] cuts =  0 [   0]
  --> SNES Linear/Non-Linear Iterations = 50 / 1
  --> SNES Residual: 0.153380E-13 0.222871E-17 0.907895E-15
  --> max change: dpmx=   1.4552E-11

 --> appending to hdf5 output file: 2D_flow-steady-state.h5
      0.04 Seconds to write HDF5 file.

== RICHARDS FLOW ===============================================================
  0 2r: 1.53E-14 2x: 0.00E+00 2u: 0.00E+00 ir: 9.08E-16 iu: 0.00E+00 rsn:   0
  1 2r: 1.53E-14 2x: 7.78E+06 2u: 3.35E-10 ir: 8.53E-16 iu: 7.31E-12 rsn: stol

 Step    110 Time=  5.50000E+01 Dt=  1.00000E+00 [y] conv_reason: 4
  newton =   1 [     166] linear =    49 [     12842] cuts =  0 [   0]
  --> SNES Linear/Non-Linear Iterations = 49 / 1
  --> SNES Residual: 0.152976E-13 0.222284E-17 0.852578E-15
  --> max change: dpmx=   1.4552E-11

 --> appending to hdf5 output file: 2D_flow-steady-state.h5
      0.04 Seconds to write HDF5 file.

== RICHARDS FLOW ===============================================================
  0 2r: 1.53E-14 2x: 0.00E+00 2u: 0.00E+00 ir: 8.53E-16 iu: 0.00E+00 rsn:   0
  1 2r: 1.53E-14 2x: 7.78E+06 2u: 3.35E-10 ir: 9.08E-16 iu: 7.34E-12 rsn: stol

 Step    111 Time=  5.60000E+01 Dt=  1.00000E+00 [y] conv_reason: 4
  newton =   1 [     167] linear =    50 [     12892] cuts =  0 [   0]
  --> SNES Linear/Non-Linear Iterations = 50 / 1
  --> SNES Residual: 0.153380E-13 0.222871E-17 0.907895E-15
  --> max change: dpmx=   1.4552E-11

 --> appending to hdf5 output file: 2D_flow-steady-state.h5
      0.04 Seconds to write HDF5 file.

== RICHARDS FLOW ===============================================================
  0 2r: 1.53E-14 2x: 0.00E+00 2u: 0.00E+00 ir: 9.08E-16 iu: 0.00E+00 rsn:   0
  1 2r: 1.53E-14 2x: 7.78E+06 2u: 3.35E-10 ir: 8.53E-16 iu: 7.31E-12 rsn: stol

 Step    112 Time=  5.70000E+01 Dt=  1.00000E+00 [y] conv_reason: 4
  newton =   1 [     168] linear =    49 [     12941] cuts =  0 [   0]
  --> SNES Linear/Non-Linear Iterations = 49 / 1
  --> SNES Residual: 0.152976E-13 0.222284E-17 0.852578E-15
  --> max change: dpmx=   1.4552E-11

 --> appending to hdf5 output file: 2D_flow-steady-state.h5
      0.04 Seconds to write HDF5 file.

== RICHARDS FLOW ===============================================================
  0 2r: 1.53E-14 2x: 0.00E+00 2u: 0.00E+00 ir: 8.53E-16 iu: 0.00E+00 rsn:   0
  1 2r: 1.53E-14 2x: 7.78E+06 2u: 3.35E-10 ir: 9.08E-16 iu: 7.34E-12 rsn: stol

 Step    113 Time=  5.80000E+01 Dt=  1.00000E+00 [y] conv_reason: 4
[...]
  --> SNES Residual: 0.152976E-13 0.222284E-17 0.852578E-15
  --> max change: dpmx=   1.4552E-11

 --> appending to hdf5 output file: 2D_flow-steady-state.h5
      0.03 Seconds to write HDF5 file.

== RICHARDS FLOW ===============================================================
  0 2r: 1.53E-14 2x: 0.00E+00 2u: 0.00E+00 ir: 8.53E-16 iu: 0.00E+00 rsn:   0
  1 2r: 1.53E-14 2x: 7.78E+06 2u: 3.35E-10 ir: 9.08E-16 iu: 7.34E-12 rsn: stol

 Step    125 Time=  7.00000E+01 Dt=  1.00000E+00 [y] conv_reason: 4
  newton =   1 [     181] linear =    50 [     13585] cuts =  0 [   0]
  --> SNES Linear/Non-Linear Iterations = 50 / 1
  --> SNES Residual: 0.153380E-13 0.222871E-17 0.907895E-15
  --> max change: dpmx=   1.4552E-11

 --> appending to hdf5 output file: 2D_flow-steady-state.h5
      0.05 Seconds to write HDF5 file.

== RICHARDS FLOW ===============================================================
  0 2r: 1.53E-14 2x: 0.00E+00 2u: 0.00E+00 ir: 9.08E-16 iu: 0.00E+00 rsn:   0
  1 2r: 1.53E-14 2x: 7.78E+06 2u: 3.35E-10 ir: 8.53E-16 iu: 7.31E-12 rsn: stol

 Step    126 Time=  7.10000E+01 Dt=  1.00000E+00 [y] conv_reason: 4
  newton =   1 [     182] linear =    49 [     13634] cuts =  0 [   0]
  --> SNES Linear/Non-Linear Iterations = 49 / 1
  --> SNES Residual: 0.152976E-13 0.222284E-17 0.852578E-15
  --> max change: dpmx=   1.4552E-11

 --> appending to hdf5 output file: 2D_flow-steady-state.h5
      0.03 Seconds to write HDF5 file.

== RICHARDS FLOW ===============================================================
  0 2r: 1.53E-14 2x: 0.00E+00 2u: 0.00E+00 ir: 8.53E-16 iu: 0.00E+00 rsn:   0
  1 2r: 1.53E-14 2x: 7.78E+06 2u: 3.35E-10 ir: 9.08E-16 iu: 7.34E-12 rsn: stol

 Step    127 Time=  7.20000E+01 Dt=  1.00000E+00 [y] conv_reason: 4
  newton =   1 [     183] linear =    50 [     13684] cuts =  0 [   0]
  --> SNES Linear/Non-Linear Iterations = 50 / 1
  --> SNES Residual: 0.153380E-13 0.222871E-17 0.907895E-15
  --> max change: dpmx=   1.4552E-11

 --> appending to hdf5 output file: 2D_flow-steady-state.h5
      0.04 Seconds to write HDF5 file.

== RICHARDS FLOW ===============================================================
  0 2r: 1.53E-14 2x: 0.00E+00 2u: 0.00E+00 ir: 9.08E-16 iu: 0.00E+00 rsn:   0
  1 2r: 1.53E-14 2x: 7.78E+06 2u: 3.35E-10 ir: 8.53E-16 iu: 7.31E-12 rsn: stol

 Step    128 Time=  7.30000E+01 Dt=  1.00000E+00 [y] conv_reason: 4
  newton =   1 [     184] linear =    49 [     13733] cuts =  0 [   0]
  --> SNES Linear/Non-Linear Iterations = 49 / 1
  --> SNES Residual: 0.152976E-13 0.222284E-17 0.852578E-15
  --> max change: dpmx=   1.4552E-11

 --> appending to hdf5 output file: 2D_flow-steady-state.h5
      0.04 Seconds to write HDF5 file.

== RICHARDS FLOW ===============================================================
  0 2r: 1.53E-14 2x: 0.00E+00 2u: 0.00E+00 ir: 8.53E-16 iu: 0.00E+00 rsn:   0
  1 2r: 1.53E-14 2x: 7.78E+06 2u: 3.35E-10 ir: 9.08E-16 iu: 7.34E-12 rsn: stol

 Step    129 Time=  7.40000E+01 Dt=  1.00000E+00 [y] conv_reason: 4
  newton =   1 [     185] linear =    50 [     13783] cuts =  0 [   0]
  --> SNES Linear/Non-Linear Iterations = 50 / 1
  --> SNES Residual: 0.153380E-13 0.222871E-17 0.907895E-15
  --> max change: dpmx=   1.4552E-11

 --> appending to hdf5 output file: 2D_flow-steady-state.h5
      0.04 Seconds to write HDF5 file.

== RICHARDS FLOW ===============================================================
  0 2r: 1.53E-14 2x: 0.00E+00 2u: 0.00E+00 ir: 9.08E-16 iu: 0.00E+00 rsn:   0
  1 2r: 1.53E-14 2x: 7.78E+06 2u: 3.35E-10 ir: 8.53E-16 iu: 7.31E-12 rsn: stol

 Step    130 Time=  7.50000E+01 Dt=  1.00000E+00 [y] conv_reason: 4
  newton =   1 [     186] linear =    49 [     13832] cuts =  0 [   0]
  --> SNES Linear/Non-Linear Iterations = 49 / 1
  --> SNES Residual: 0.152976E-13 0.222284E-17 0.852578E-15
  --> max change: dpmx=   1.4552E-11

 --> appending to hdf5 output file: 2D_flow-steady-state.h5
      0.04 Seconds to write HDF5 file.

== RICHARDS FLOW ===============================================================
  0 2r: 1.53E-14 2x: 0.00E+00 2u: 0.00E+00 ir: 8.53E-16 iu: 0.00E+00 rsn:   0
  1 2r: 1.53E-14 2x: 7.78E+06 2u: 3.35E-10 ir: 9.08E-16 iu: 7.34E-12 rsn: stol

 Step    131 Time=  7.60000E+01 Dt=  1.00000E+00 [y] conv_reason: 4
  newton =   1 [     187] linear =    50 [     13882] cuts =  0 [   0]
  --> SNES Linear/Non-Linear Iterations = 50 / 1
  --> SNES Residual: 0.153380E-13 0.222871E-17 0.907895E-15
  --> max change: dpmx=   1.4552E-11

 --> appending to hdf5 output file: 2D_flow-steady-state.h5
      0.04 Seconds to write HDF5 file.

== RICHARDS FLOW ===============================================================
  0 2r: 1.53E-14 2x: 0.00E+00 2u: 0.00E+00 ir: 9.08E-16 iu: 0.00E+00 rsn:   0
  1 2r: 1.53E-14 2x: 7.78E+06 2u: 3.35E-10 ir: 8.53E-16 iu: 7.31E-12 rsn: stol

 Step    132 Time=  7.70000E+01 Dt=  1.00000E+00 [y] conv_reason: 4
  newton =   1 [     188] linear =    49 [     13931] cuts =  0 [   0]
  --> SNES Linear/Non-Linear Iterations = 49 / 1
  --> SNES Residual: 0.152976E-13 0.222284E-17 0.852578E-15
  --> max change: dpmx=   1.4552E-11

 --> appending to hdf5 output file: 2D_flow-steady-state.h5
      0.04 Seconds to write HDF5 file.

== RICHARDS FLOW ===============================================================
  0 2r: 1.53E-14 2x: 0.00E+00 2u: 0.00E+00 ir: 8.53E-16 iu: 0.00E+00 rsn:   0
  1 2r: 1.53E-14 2x: 7.78E+06 2u: 3.35E-10 ir: 9.08E-16 iu: 7.34E-12 rsn: stol

 Step    133 Time=  7.80000E+01 Dt=  1.00000E+00 [y] conv_reason: 4
  newton =   1 [     189] linear =    50 [     13981] cuts =  0 [   0]
  --> SNES Linear/Non-Linear Iterations = 50 / 1
  --> SNES Residual: 0.153380E-13 0.222871E-17 0.907895E-15
  --> max change: dpmx=   1.4552E-11

 --> appending to hdf5 output file: 2D_flow-steady-state.h5
      0.03 Seconds to write HDF5 file.

== RICHARDS FLOW ===============================================================
  0 2r: 1.53E-14 2x: 0.00E+00 2u: 0.00E+00 ir: 9.08E-16 iu: 0.00E+00 rsn:   0
  1 2r: 1.53E-14 2x: 7.78E+06 2u: 3.35E-10 ir: 8.53E-16 iu: 7.31E-12 rsn: stol

 Step    134 Time=  7.90000E+01 Dt=  1.00000E+00 [y] conv_reason: 4
  newton =   1 [     190] linear =    49 [     14030] cuts =  0 [   0]
  --> SNES Linear/Non-Linear Iterations = 49 / 1
  --> SNES Residual: 0.152976E-13 0.222284E-17 0.852578E-15
  --> max change: dpmx=   1.4552E-11

 --> appending to hdf5 output file: 2D_flow-steady-state.h5
      0.03 Seconds to write HDF5 file.

== RICHARDS FLOW ===============================================================
  0 2r: 1.53E-14 2x: 0.00E+00 2u: 0.00E+00 ir: 8.53E-16 iu: 0.00E+00 rsn:   0
  1 2r: 1.53E-14 2x: 7.78E+06 2u: 3.35E-10 ir: 9.08E-16 iu: 7.34E-12 rsn: stol

 Step    135 Time=  8.00000E+01 Dt=  1.00000E+00 [y] conv_reason: 4
  newton =   1 [     191] linear =    50 [     14080] cuts =  0 [   0]
  --> SNES Linear/Non-Linear Iterations = 50 / 1
  --> SNES Residual: 0.153380E-13 0.222871E-17 0.907895E-15
  --> max change: dpmx=   1.4552E-11

 --> appending to hdf5 output file: 2D_flow-steady-state.h5
      0.04 Seconds to write HDF5 file.

== RICHARDS FLOW ===============================================================
  0 2r: 1.53E-14 2x: 0.00E+00 2u: 0.00E+00 ir: 9.08E-16 iu: 0.00E+00 rsn:   0
  1 2r: 1.53E-14 2x: 7.78E+06 2u: 3.35E-10 ir: 8.53E-16 iu: 7.31E-12 rsn: stol

 Step    136 Time=  8.10000E+01 Dt=  1.00000E+00 [y] conv_reason: 4
  newton =   1 [     192] linear =    49 [     14129] cuts =  0 [   0]
  --> SNES Linear/Non-Linear Iterations = 49 / 1
  --> SNES Residual: 0.152976E-13 0.222284E-17 0.852578E-15
  --> max change: dpmx=   1.4552E-11

 --> appending to hdf5 output file: 2D_flow-steady-state.h5
      0.04 Seconds to write HDF5 file.

== RICHARDS FLOW ===============================================================
  0 2r: 1.53E-14 2x: 0.00E+00 2u: 0.00E+00 ir: 8.53E-16 iu: 0.00E+00 rsn:   0
  1 2r: 1.53E-14 2x: 7.78E+06 2u: 3.35E-10 ir: 9.08E-16 iu: 7.34E-12 rsn: stol

 Step    137 Time=  8.20000E+01 Dt=  1.00000E+00 [y] conv_reason: 4
  newton =   1 [     193] linear =    50 [     14179] cuts =  0 [   0]
  --> SNES Linear/Non-Linear Iterations = 50 / 1
  --> SNES Residual: 0.153380E-13 0.222871E-17 0.907895E-15
  --> max change: dpmx=   1.4552E-11

 --> appending to hdf5 output file: 2D_flow-steady-state.h5
      0.04 Seconds to write HDF5 file.

== RICHARDS FLOW ===============================================================
  0 2r: 1.53E-14 2x: 0.00E+00 2u: 0.00E+00 ir: 9.08E-16 iu: 0.00E+00 rsn:   0
  1 2r: 1.53E-14 2x: 7.78E+06 2u: 3.35E-10 ir: 8.53E-16 iu: 7.31E-12 rsn: stol

 Step    138 Time=  8.30000E+01 Dt=  1.00000E+00 [y] conv_reason: 4
  newton =   1 [     194] linear =    49 [     14228] cuts =  0 [   0]
  --> SNES Linear/Non-Linear Iterations = 49 / 1
  --> SNES Residual: 0.152976E-13 0.222284E-17 0.852578E-15
  --> max change: dpmx=   1.4552E-11

 --> appending to hdf5 output file: 2D_flow-steady-state.h5
      0.04 Seconds to write HDF5 file.

== RICHARDS FLOW ===============================================================
  0 2r: 1.53E-14 2x: 0.00E+00 2u: 0.00E+00 ir: 8.53E-16 iu: 0.00E+00 rsn:   0
  1 2r: 1.53E-14 2x: 7.78E+06 2u: 3.35E-10 ir: 9.08E-16 iu: 7.34E-12 rsn: stol

 Step    139 Time=  8.40000E+01 Dt=  1.00000E+00 [y] conv_reason: 4
  newton =   1 [     195] linear =    50 [     14278] cuts =  0 [   0]
  --> SNES Linear/Non-Linear Iterations = 50 / 1
  --> SNES Residual: 0.153380E-13 0.222871E-17 0.907895E-15
  --> max change: dpmx=   1.4552E-11

 --> appending to hdf5 output file: 2D_flow-steady-state.h5
      0.03 Seconds to write HDF5 file.

== RICHARDS FLOW ===============================================================
  0 2r: 1.53E-14 2x: 0.00E+00 2u: 0.00E+00 ir: 9.08E-16 iu: 0.00E+00 rsn:   0
  1 2r: 1.53E-14 2x: 7.78E+06 2u: 3.35E-10 ir: 8.53E-16 iu: 7.31E-12 rsn: stol

 Step    140 Time=  8.50000E+01 Dt=  1.00000E+00 [y] conv_reason: 4
  newton =   1 [     196] linear =    49 [     14327] cuts =  0 [   0]
  --> SNES Linear/Non-Linear Iterations = 49 / 1
  --> SNES Residual: 0.152976E-13 0.222284E-17 0.852578E-15
  --> max change: dpmx=   1.4552E-11

 --> appending to hdf5 output file: 2D_flow-steady-state.h5
      0.03 Seconds to write HDF5 file.

== RICHARDS FLOW ===============================================================
  0 2r: 1.53E-14 2x: 0.00E+00 2u: 0.00E+00 ir: 8.53E-16 iu: 0.00E+00 rsn:   0
  1 2r: 1.53E-14 2x: 7.78E+06 2u: 3.35E-10 ir: 9.08E-16 iu: 7.34E-12 rsn: stol

 Step    141 Time=  8.60000E+01 Dt=  1.00000E+00 [y] conv_reason: 4
  newton =   1 [     197] linear =    50 [     14377] cuts =  0 [   0]
  --> SNES Linear/Non-Linear Iterations = 50 / 1
  --> SNES Residual: 0.153380E-13 0.222871E-17 0.907895E-15
  --> max change: dpmx=   1.4552E-11

 --> appending to hdf5 output file: 2D_flow-steady-state.h5
      0.03 Seconds to write HDF5 file.

== RICHARDS FLOW ===============================================================
  0 2r: 1.53E-14 2x: 0.00E+00 2u: 0.00E+00 ir: 9.08E-16 iu: 0.00E+00 rsn:   0
  1 2r: 1.53E-14 2x: 7.78E+06 2u: 3.35E-10 ir: 8.53E-16 iu: 7.31E-12 rsn: stol

 Step    142 Time=  8.70000E+01 Dt=  1.00000E+00 [y] conv_reason: 4
  newton =   1 [     198] linear =    49 [     14426] cuts =  0 [   0]
  --> SNES Linear/Non-Linear Iterations = 49 / 1
  --> SNES Residual: 0.152976E-13 0.222284E-17 0.852578E-15
  --> max change: dpmx=   1.4552E-11

 --> appending to hdf5 output file: 2D_flow-steady-state.h5
      0.04 Seconds to write HDF5 file.

== RICHARDS FLOW ===============================================================
  0 2r: 1.53E-14 2x: 0.00E+00 2u: 0.00E+00 ir: 8.53E-16 iu: 0.00E+00 rsn:   0
  1 2r: 1.53E-14 2x: 7.78E+06 2u: 3.35E-10 ir: 9.08E-16 iu: 7.34E-12 rsn: stol

 Step    143 Time=  8.80000E+01 Dt=  1.00000E+00 [y] conv_reason: 4
  newton =   1 [     199] linear =    50 [     14476] cuts =  0 [   0]
  --> SNES Linear/Non-Linear Iterations = 50 / 1
  --> SNES Residual: 0.153380E-13 0.222871E-17 0.907895E-15
  --> max change: dpmx=   1.4552E-11

 --> appending to hdf5 output file: 2D_flow-steady-state.h5
      0.04 Seconds to write HDF5 file.

== RICHARDS FLOW ===============================================================
  0 2r: 1.53E-14 2x: 0.00E+00 2u: 0.00E+00 ir: 9.08E-16 iu: 0.00E+00 rsn:   0
  1 2r: 1.53E-14 2x: 7.78E+06 2u: 3.35E-10 ir: 8.53E-16 iu: 7.31E-12 rsn: stol

 Step    144 Time=  8.90000E+01 Dt=  1.00000E+00 [y] conv_reason: 4
  newton =   1 [     200] linear =    49 [     14525] cuts =  0 [   0]
  --> SNES Linear/Non-Linear Iterations = 49 / 1
  --> SNES Residual: 0.152976E-13 0.222284E-17 0.852578E-15
  --> max change: dpmx=   1.4552E-11

 --> appending to hdf5 output file: 2D_flow-steady-state.h5
      0.03 Seconds to write HDF5 file.

== RICHARDS FLOW ===============================================================
  0 2r: 1.53E-14 2x: 0.00E+00 2u: 0.00E+00 ir: 8.53E-16 iu: 0.00E+00 rsn:   0
  1 2r: 1.53E-14 2x: 7.78E+06 2u: 3.35E-10 ir: 9.08E-16 iu: 7.34E-12 rsn: stol

 Step    145 Time=  9.00000E+01 Dt=  1.00000E+00 [y] conv_reason: 4
  newton =   1 [     201] linear =    50 [     14575] cuts =  0 [   0]
  --> SNES Linear/Non-Linear Iterations = 50 / 1
  --> SNES Residual: 0.153380E-13 0.222871E-17 0.907895E-15
  --> max change: dpmx=   1.4552E-11

 --> appending to hdf5 output file: 2D_flow-steady-state.h5
      0.04 Seconds to write HDF5 file.

== RICHARDS FLOW ===============================================================
  0 2r: 1.53E-14 2x: 0.00E+00 2u: 0.00E+00 ir: 9.08E-16 iu: 0.00E+00 rsn:   0
  1 2r: 1.53E-14 2x: 7.78E+06 2u: 3.35E-10 ir: 8.53E-16 iu: 7.31E-12 rsn: stol

 Step    146 Time=  9.10000E+01 Dt=  1.00000E+00 [y] conv_reason: 4
  newton =   1 [     202] linear =    49 [     14624] cuts =  0 [   0]
  --> SNES Linear/Non-Linear Iterations = 49 / 1
  --> SNES Residual: 0.152976E-13 0.222284E-17 0.852578E-15
  --> max change: dpmx=   1.4552E-11

 --> appending to hdf5 output file: 2D_flow-steady-state.h5
      0.03 Seconds to write HDF5 file.

== RICHARDS FLOW ===============================================================
  0 2r: 1.53E-14 2x: 0.00E+00 2u: 0.00E+00 ir: 8.53E-16 iu: 0.00E+00 rsn:   0
  1 2r: 1.53E-14 2x: 7.78E+06 2u: 3.35E-10 ir: 9.08E-16 iu: 7.34E-12 rsn: stol

 Step    147 Time=  9.20000E+01 Dt=  1.00000E+00 [y] conv_reason: 4
  newton =   1 [     203] linear =    50 [     14674] cuts =  0 [   0]
  --> SNES Linear/Non-Linear Iterations = 50 / 1
  --> SNES Residual: 0.153380E-13 0.222871E-17 0.907895E-15
  --> max change: dpmx=   1.4552E-11

 --> appending to hdf5 output file: 2D_flow-steady-state.h5
      0.04 Seconds to write HDF5 file.

== RICHARDS FLOW ===============================================================
  0 2r: 1.53E-14 2x: 0.00E+00 2u: 0.00E+00 ir: 9.08E-16 iu: 0.00E+00 rsn:   0
  1 2r: 1.53E-14 2x: 7.78E+06 2u: 3.35E-10 ir: 8.53E-16 iu: 7.31E-12 rsn: stol

 Step    148 Time=  9.30000E+01 Dt=  1.00000E+00 [y] conv_reason: 4
  newton =   1 [     204] linear =    49 [     14723] cuts =  0 [   0]
  --> SNES Linear/Non-Linear Iterations = 49 / 1
  --> SNES Residual: 0.152976E-13 0.222284E-17 0.852578E-15
  --> max change: dpmx=   1.4552E-11

 --> appending to hdf5 output file: 2D_flow-steady-state.h5
      0.03 Seconds to write HDF5 file.

== RICHARDS FLOW ===============================================================
  0 2r: 1.53E-14 2x: 0.00E+00 2u: 0.00E+00 ir: 8.53E-16 iu: 0.00E+00 rsn:   0
  1 2r: 1.53E-14 2x: 7.78E+06 2u: 3.35E-10 ir: 9.08E-16 iu: 7.34E-12 rsn: stol

 Step    149 Time=  9.40000E+01 Dt=  1.00000E+00 [y] conv_reason: 4
  newton =   1 [     205] linear =    50 [     14773] cuts =  0 [   0]
  --> SNES Linear/Non-Linear Iterations = 50 / 1
  --> SNES Residual: 0.153380E-13 0.222871E-17 0.907895E-15
  --> max change: dpmx=   1.4552E-11

 --> appending to hdf5 output file: 2D_flow-steady-state.h5
      0.03 Seconds to write HDF5 file.

== RICHARDS FLOW ===============================================================
  0 2r: 1.53E-14 2x: 0.00E+00 2u: 0.00E+00 ir: 9.08E-16 iu: 0.00E+00 rsn:   0
  1 2r: 1.53E-14 2x: 7.78E+06 2u: 3.35E-10 ir: 8.53E-16 iu: 7.31E-12 rsn: stol

 Step    150 Time=  9.50000E+01 Dt=  1.00000E+00 [y] conv_reason: 4
  newton =   1 [     206] linear =    49 [     14822] cuts =  0 [   0]
  --> SNES Linear/Non-Linear Iterations = 49 / 1
  --> SNES Residual: 0.152976E-13 0.222284E-17 0.852578E-15
  --> max change: dpmx=   1.4552E-11

 --> appending to hdf5 output file: 2D_flow-steady-state.h5
      0.03 Seconds to write HDF5 file.

== RICHARDS FLOW ===============================================================
  0 2r: 1.53E-14 2x: 0.00E+00 2u: 0.00E+00 ir: 8.53E-16 iu: 0.00E+00 rsn:   0
  1 2r: 1.53E-14 2x: 7.78E+06 2u: 3.35E-10 ir: 9.08E-16 iu: 7.34E-12 rsn: stol

 Step    151 Time=  9.60000E+01 Dt=  1.00000E+00 [y] conv_reason: 4
  newton =   1 [     207] linear =    50 [     14872] cuts =  0 [   0]
  --> SNES Linear/Non-Linear Iterations = 50 / 1
  --> SNES Residual: 0.153380E-13 0.222871E-17 0.907895E-15
  --> max change: dpmx=   1.4552E-11

 --> appending to hdf5 output file: 2D_flow-steady-state.h5
      0.04 Seconds to write HDF5 file.

== RICHARDS FLOW ===============================================================
  0 2r: 1.53E-14 2x: 0.00E+00 2u: 0.00E+00 ir: 9.08E-16 iu: 0.00E+00 rsn:   0
  1 2r: 1.53E-14 2x: 7.78E+06 2u: 3.35E-10 ir: 8.53E-16 iu: 7.31E-12 rsn: stol

 Step    152 Time=  9.70000E+01 Dt=  1.00000E+00 [y] conv_reason: 4
  newton =   1 [     208] linear =    49 [     14921] cuts =  0 [   0]
  --> SNES Linear/Non-Linear Iterations = 49 / 1
  --> SNES Residual: 0.152976E-13 0.222284E-17 0.852578E-15
  --> max change: dpmx=   1.4552E-11

 --> appending to hdf5 output file: 2D_flow-steady-state.h5
      0.04 Seconds to write HDF5 file.

== RICHARDS FLOW ===============================================================
  0 2r: 1.53E-14 2x: 0.00E+00 2u: 0.00E+00 ir: 8.53E-16 iu: 0.00E+00 rsn:   0
  1 2r: 1.53E-14 2x: 7.78E+06 2u: 3.35E-10 ir: 9.08E-16 iu: 7.34E-12 rsn: stol

 Step    153 Time=  9.80000E+01 Dt=  1.00000E+00 [y] conv_reason: 4
  newton =   1 [     209] linear =    50 [     14971] cuts =  0 [   0]
  --> SNES Linear/Non-Linear Iterations = 50 / 1
  --> SNES Residual: 0.153380E-13 0.222871E-17 0.907895E-15
  --> max change: dpmx=   1.4552E-11

 --> appending to hdf5 output file: 2D_flow-steady-state.h5
      0.03 Seconds to write HDF5 file.

== RICHARDS FLOW ===============================================================
  0 2r: 1.53E-14 2x: 0.00E+00 2u: 0.00E+00 ir: 9.08E-16 iu: 0.00E+00 rsn:   0
  1 2r: 1.53E-14 2x: 7.78E+06 2u: 3.35E-10 ir: 8.53E-16 iu: 7.31E-12 rsn: stol

 Step    154 Time=  9.90000E+01 Dt=  1.00000E+00 [y] conv_reason: 4
  newton =   1 [     210] linear =    49 [     15020] cuts =  0 [   0]
  --> SNES Linear/Non-Linear Iterations = 49 / 1
  --> SNES Residual: 0.152976E-13 0.222284E-17 0.852578E-15
  --> max change: dpmx=   1.4552E-11

 --> appending to hdf5 output file: 2D_flow-steady-state.h5
      0.04 Seconds to write HDF5 file.

== RICHARDS FLOW ===============================================================
  0 2r: 1.53E-14 2x: 0.00E+00 2u: 0.00E+00 ir: 8.53E-16 iu: 0.00E+00 rsn:   0
  1 2r: 1.53E-14 2x: 7.78E+06 2u: 3.35E-10 ir: 9.08E-16 iu: 7.34E-12 rsn: stol

 Step    155 Time=  1.00000E+02 Dt=  1.00000E+00 [y] conv_reason: 4
  newton =   1 [     211] linear =    50 [     15070] cuts =  0 [   0]
  --> SNES Linear/Non-Linear Iterations = 50 / 1
  --> SNES Residual: 0.153380E-13 0.222871E-17 0.907895E-15
  --> max change: dpmx=   1.4552E-11

 --> appending to hdf5 output file: 2D_flow-steady-state.h5
      0.04 Seconds to write HDF5 file.
 --> Dump checkpoint file: 2D_flow-steady-state-restart.h5
      Seconds to write to checkpoint file:       0.09

PMCSubsurfaceFlow
 Total Time: 7.0467E+01 seconds

 FLOW TS SNES steps = 155  newton = 211  linear = 15070  cuts = 0
 FLOW TS SNES Wasted Linear Iterations = 0
 FLOW TS SNES Wasted Newton Iterations = 0
 FLOW TS SNES time = 69.9 seconds

 Wall Clock Time:  7.5718E+01 [sec]   1.2620E+00 [min]   2.1033E-02 [hr]
