
=================
  PFLOTRAN v6.0
=================

"grid_structured_type" set to default value.
pflotran card:: NUMERICAL_METHODS
pflotran card:: GRID
pflotran card:: MATERIAL_PROPERTY
  Name :: soil1
pflotran card:: CHARACTERISTIC_CURVES
  Name :: default
 WARNING: Mualem-van Genuchten relative permeability function is being used without SMOOTH option.
pflotran card:: OUTPUT
"OUTPUT,SNAPSHOT_FILE,FORMAT,HDF5" set to default value.
pflotran card:: TIME
pflotran card:: REGION
all
pflotran card:: REGION
top
pflotran card:: REGION
bottom
pflotran card:: REGION
east
pflotran card:: REGION
west
pflotran card:: FLOW_CONDITION
initial
pflotran card:: FLOW_CONDITION
recharge
pflotran card:: FLOW_CONDITION
west
pflotran card:: FLOW_CONDITION
east
pflotran card:: INITIAL_CONDITION
"Initial Condition name" set to default value.
pflotran card:: BOUNDARY_CONDITION
pflotran card:: BOUNDARY_CONDITION
pflotran card:: BOUNDARY_CONDITION
pflotran card:: STRATA
pflotran card:: END_SUBSURFACE

Process Decomposition

Extent of Gridded Domain
 X: 0.000000E+00 - 2.220000E+02
 Y: 0.000000E+00 - 1.000000E+00
 Z: 0.000000E+00 - 6.100000E+00

Size of Gridded Domain
 Number of grid cells: 6660
 Maximum number of grid cells per process: 420
 Minimum number of grid cells per process: 405

Number of active grid cells: 6660
Number of inactive grid cells: 0


=+=+=+=+=+=+=+=+=+=+=+=+=+=+=+=+=+=+=+=+=+=+=+=+=+=+=+=+=+=+=+=+=+=+=+=+=+=+=+=+

  Initial Condition

--------------------------------------------------------------------------------
          Flow Condition:   initial
                  Region:   all
--------------------------------------------------------------------------------

  Flow Condition: initial
    Synchronize time with update: no
    Time units: yr
    Length units: m
      Datum:
        Dataset: Unnamed Ascii Dataset
          Type: dataset_ascii_type
          Transient: no
          Array Rank:  3

    Sub Condition: pressure
      Type: hydrostatic
      Gradient:
      Data:
        Dataset: Unnamed Ascii Dataset
          Type: dataset_ascii_type
          Transient: no
          Array Rank:  1

--------------------------------------------------------------------------------

=+=+=+=+=+=+=+=+=+=+=+=+=+=+=+=+=+=+=+=+=+=+=+=+=+=+=+=+=+=+=+=+=+=+=+=+=+=+=+=+

  Boundary Condition

--------------------------------------------------------------------------------
          Flow Condition:   recharge
                  Region:   top
--------------------------------------------------------------------------------

  Flow Condition: recharge
    Synchronize time with update: no
    Time units: yr
    Length units: m
      Datum:

    Sub Condition: pressure
      Type: neumann
      Gradient:
      Data:
        Dataset: Unnamed Ascii Dataset
          Type: dataset_ascii_type
          Transient: no
          Array Rank:  1

--------------------------------------------------------------------------------

=+=+=+=+=+=+=+=+=+=+=+=+=+=+=+=+=+=+=+=+=+=+=+=+=+=+=+=+=+=+=+=+=+=+=+=+=+=+=+=+

  Boundary Condition

--------------------------------------------------------------------------------
          Flow Condition:   east
                  Region:   east
--------------------------------------------------------------------------------

  Flow Condition: east
    Synchronize time with update: no
    Time units: yr
    Length units: m
      Datum:
        Dataset: Unnamed Ascii Dataset
          Type: dataset_ascii_type
          Filename: ./BSFR_stage.txt
          Is transient?: yes
          Number of times:      2
          Is cyclic?: yes
          Buffer:
            Rank:  2
            Dims:    3   2
            Buffer Slice Size:   0
          Array Rank:  3

    Sub Condition: pressure
      Type: conductance
      Gradient:
      Data:
        Dataset: Unnamed Ascii Dataset
          Type: dataset_ascii_type
          Transient: no
          Array Rank:  1

--------------------------------------------------------------------------------

=+=+=+=+=+=+=+=+=+=+=+=+=+=+=+=+=+=+=+=+=+=+=+=+=+=+=+=+=+=+=+=+=+=+=+=+=+=+=+=+

  Boundary Condition

--------------------------------------------------------------------------------
          Flow Condition:   west
                  Region:   west
--------------------------------------------------------------------------------

  Flow Condition: west
    Synchronize time with update: no
    Time units: yr
    Length units: m
      Datum:
        Dataset: Unnamed Ascii Dataset
          Type: dataset_ascii_type
          Filename: ./HBSFC_stage.txt
          Is transient?: yes
          Number of times:      2
          Is cyclic?: yes
          Buffer:
            Rank:  2
            Dims:    3   2
            Buffer Slice Size:   0
          Array Rank:  3

    Sub Condition: pressure
      Type: conductance
      Gradient:
      Data:
        Dataset: Unnamed Ascii Dataset
          Type: dataset_ascii_type
          Transient: no
          Array Rank:  1

--------------------------------------------------------------------------------
Default HDF5 method is used in Initialization
  Beginning setup of FLOW SNES
 number of dofs =   1, number of phases =   1
 mode = Richards: p
  Finished setting up FLOW SNES

 Requested processors and decomposition =    16, npx,y,z=   -1  -1  -1
 Actual decomposition: npx,y,z=    8   1   2


FLOW Time Stepper SNES
      maximum number of steps: 999999
constant time steps threshold: 5
       maximum number of cuts: 16
             reduction factor: 5.000000E-01
        maximum growth factor: 2.000000E+00
                 acceleration: on
       acceleration threshold: 5
       number of ramp entries: 5
                ramp entry #1: 2.0000
                ramp entry #2: 2.0000
                ramp entry #3: 2.0000
                ramp entry #4: 2.0000
                ramp entry #5: 2.0000
                ramp entry #6: 1.8000
                ramp entry #7: 1.6000
                ramp entry #8: 1.4000
                ramp entry #9: 1.2000
               ramp entry #10: 1.0000
               ramp entry #11: 1.0000
               ramp entry #12: 1.0000
               ramp entry #13: 1.0000

FLOW Newton Solver
                         atol: 1.000000E-50
                         rtol: 1.000000E-08
                         stol: 1.000000E-08
                         dtol: 1.000000E+04
                      maxnorm: 1.000000E+20
                    inftolres: -9.990000E+02
                    inftolupd: -9.990000E+02
                 inftolrelupd: -9.990000E+02
                 inftolsclres: -9.990000E+02
                     max iter: 50
                     min iter: 1
                         maxf: 10000
                  matrix type: baij
         precond. matrix type: baij
               inexact newton: off
            print convergence: on
   print detailed convergence: off
          check infinity norm: on

FLOW Linear Solver
                       solver: bcgs
               preconditioner: bjacobi
                         atol: 1.000000E-50
                         rtol: 1.000000E-05
                         dtol: 1.000000E+04
            maximum iteration: 10000

 --> creating hdf5 output file: 2D_flow-steady-state.h5
      0.16 Seconds to write HDF5 file.

 Finished Initialization


== RICHARDS FLOW ===============================================================
  0 2r: 1.22E-04 2x: 0.00E+00 2u: 0.00E+00 ir: 2.61E-05 iu: 0.00E+00 rsn:   0
  1 2r: 2.29E-05 2x: 9.14E+06 2u: 1.54E+03 ir: 4.59E-06 iu: 5.21E+01 rsn:   0
  2 2r: 3.72E-09 2x: 9.14E+06 2u: 7.25E+00 ir: 3.07E-10 iu: 6.90E-01 rsn:   0
  3 2r: 2.86E-13 2x: 9.14E+06 2u: 8.85E-02 ir: 1.73E-14 iu: 1.78E-03 rsn: rtol

 Step      1 Time=  1.14155E-04 Dt=  1.14155E-04 [y] conv_reason: 3
  newton =   3 [       3] linear =   698 [       698] cuts =  0 [   0]
  --> SNES Linear/Non-Linear Iterations = 698 / 3
  --> SNES Residual: 0.286382E-12 0.430003E-16 0.172545E-13
  --> max change: dpmx=   5.1853E+01

== RICHARDS FLOW ===============================================================
  0 2r: 2.16E-05 2x: 0.00E+00 2u: 0.00E+00 ir: 1.65E-06 iu: 0.00E+00 rsn:   0
  1 2r: 2.59E-06 2x: 9.14E+06 2u: 1.89E+03 ir: 2.30E-06 iu: 3.98E+01 rsn:   0
  2 2r: 8.82E-11 2x: 9.14E+06 2u: 1.51E+00 ir: 1.70E-11 iu: 8.71E-02 rsn:   0
  3 2r: 2.76E-13 2x: 9.14E+06 2u: 7.06E-03 ir: 1.56E-14 iu: 1.26E-04 rsn: stol

 Step      2 Time=  3.42466E-04 Dt=  2.28311E-04 [y] conv_reason: 4
  newton =   3 [       6] linear =   766 [      1464] cuts =  0 [   0]
  --> SNES Linear/Non-Linear Iterations = 766 / 3
  --> SNES Residual: 0.275694E-12 0.413955E-16 0.155690E-13
  --> max change: dpmx=   3.9873E+01

== RICHARDS FLOW ===============================================================
  0 2r: 1.35E-05 2x: 0.00E+00 2u: 0.00E+00 ir: 6.30E-07 iu: 0.00E+00 rsn:   0
  1 2r: 7.22E-07 2x: 9.14E+06 2u: 1.96E+03 ir: 5.71E-07 iu: 3.71E+01 rsn:   0
  2 2r: 4.28E-11 2x: 9.14E+06 2u: 2.86E-01 ir: 4.27E-12 iu: 1.76E-02 rsn:   0
  3 2r: 2.73E-13 2x: 9.14E+06 2u: 2.71E-03 ir: 1.59E-14 iu: 5.61E-05 rsn: stol

 Step      3 Time=  7.99087E-04 Dt=  4.56621E-04 [y] conv_reason: 4
  newton =   3 [       9] linear =   745 [      2209] cuts =  0 [   0]
  --> SNES Linear/Non-Linear Iterations = 745 / 3
  --> SNES Residual: 0.272896E-12 0.409754E-16 0.159124E-13
  --> max change: dpmx=   3.7087E+01

== RICHARDS FLOW ===============================================================
  0 2r: 6.99E-06 2x: 0.00E+00 2u: 0.00E+00 ir: 2.98E-07 iu: 0.00E+00 rsn:   0
  1 2r: 4.33E-07 2x: 9.14E+06 2u: 1.40E+03 ir: 3.10E-07 iu: 2.78E+01 rsn:   0
  2 2r: 2.38E-10 2x: 9.14E+06 2u: 1.73E-01 ir: 1.66E-10 iu: 2.13E-02 rsn:   0
  3 2r: 2.77E-13 2x: 9.14E+06 2u: 9.66E-03 ir: 1.71E-14 iu: 1.95E-04 rsn: stol

 Step      4 Time=  1.71233E-03 Dt=  9.13242E-04 [y] conv_reason: 4
  newton =   3 [      12] linear =   818 [      3027] cuts =  0 [   0]
  --> SNES Linear/Non-Linear Iterations = 818 / 3
  --> SNES Residual: 0.276526E-12 0.415205E-16 0.170996E-13
  --> max change: dpmx=   2.7832E+01

== RICHARDS FLOW ===============================================================
  0 2r: 2.51E-06 2x: 0.00E+00 2u: 0.00E+00 ir: 1.12E-07 iu: 0.00E+00 rsn:   0
  1 2r: 2.59E-07 2x: 9.14E+06 2u: 8.49E+02 ir: 1.51E-07 iu: 1.77E+01 rsn:   0
  2 2r: 3.60E-10 2x: 9.14E+06 2u: 2.78E-01 ir: 2.54E-10 iu: 6.07E-03 rsn:   0
  3 2r: 2.82E-13 2x: 9.14E+06 2u: 1.13E-03 ir: 1.59E-14 iu: 2.21E-05 rsn: stol

 Step      5 Time=  3.53881E-03 Dt=  1.82648E-03 [y] conv_reason: 4
  newton =   3 [      15] linear =   945 [      3972] cuts =  0 [   0]
  --> SNES Linear/Non-Linear Iterations = 945 / 3
  --> SNES Residual: 0.282198E-12 0.423720E-16 0.159406E-13
  --> max change: dpmx=   1.7675E+01

== RICHARDS FLOW ===============================================================
  0 2r: 7.57E-07 2x: 0.00E+00 2u: 0.00E+00 ir: 3.56E-08 iu: 0.00E+00 rsn:   0
  1 2r: 3.28E-07 2x: 9.14E+06 2u: 1.20E+03 ir: 5.49E-08 iu: 1.69E+01 rsn:   0
  2 2r: 4.35E-11 2x: 9.14E+06 2u: 2.11E-01 ir: 8.43E-12 iu: 1.05E-02 rsn:   0
  3 2r: 2.85E-13 2x: 9.14E+06 2u: 4.38E-02 ir: 1.70E-14 iu: 6.09E-04 rsn: stol

 Step      6 Time=  7.19178E-03 Dt=  3.65297E-03 [y] conv_reason: 4
  newton =   3 [      18] linear =  1185 [      5157] cuts =  0 [   0]
  --> SNES Linear/Non-Linear Iterations = 1185 / 3
  --> SNES Residual: 0.284877E-12 0.427744E-16 0.170028E-13
  --> max change: dpmx=   1.6937E+01

== RICHARDS FLOW ===============================================================
  0 2r: 5.36E-07 2x: 0.00E+00 2u: 0.00E+00 ir: 1.71E-08 iu: 0.00E+00 rsn:   0
  1 2r: 4.21E-09 2x: 9.14E+06 2u: 2.23E+03 ir: 2.79E-09 iu: 2.75E+01 rsn:   0
  2 2r: 5.41E-13 2x: 9.14E+06 2u: 5.67E-01 ir: 6.43E-14 iu: 7.27E-03 rsn:   0
 -> Cut time step: snes= -3 icut= 1 [1] t= 7.19178E-03 dt= 3.65297E-03 [y]
Newton solver reason: SNES_DIVERGED_LINEAR_SOLVE
Linear solver reason: KSP_DIVERGED_BREAKDOWN
  0 2r: 5.36E-07 2x: 0.00E+00 2u: 0.00E+00 ir: 1.71E-08 iu: 0.00E+00 rsn:   0
  1 2r: 2.61E-09 2x: 9.14E+06 2u: 1.15E+03 ir: 1.32E-09 iu: 1.43E+01 rsn:   0
  2 2r: 3.72E-13 2x: 9.14E+06 2u: 1.57E-01 ir: 7.17E-14 iu: 2.08E-03 rsn:   0
  3 2r: 2.84E-13 2x: 9.14E+06 2u: 7.62E-05 ir: 1.67E-14 iu: 1.17E-06 rsn: stol

 Step      7 Time=  1.08447E-02 Dt=  3.65297E-03 [y] conv_reason: 4
  newton =   5 [      23] linear =  2013 [      7170] cuts =  1 [   1]
  --> SNES Linear/Non-Linear Iterations = 960 / 3
  --> SNES Residual: 0.284254E-12 0.426808E-16 0.167151E-13
  --> max change: dpmx=   1.4348E+01

== RICHARDS FLOW ===============================================================
  0 2r: 5.14E-07 2x: 0.00E+00 2u: 0.00E+00 ir: 1.45E-08 iu: 0.00E+00 rsn:   0
  1 2r: 1.79E-09 2x: 9.14E+06 2u: 1.12E+03 ir: 1.05E-09 iu: 1.37E+01 rsn:   0
  2 2r: 2.92E-13 2x: 9.14E+06 2u: 1.49E-01 ir: 1.62E-14 iu: 2.17E-03 rsn:   0
  3 2r: 2.80E-13 2x: 9.14E+06 2u: 1.94E-05 ir: 1.63E-14 iu: 3.85E-07 rsn: stol

 Step      8 Time=  1.44977E-02 Dt=  3.65297E-03 [y] conv_reason: 4
  newton =   3 [      26] linear =   989 [      8159] cuts =  0 [   1]
  --> SNES Linear/Non-Linear Iterations = 989 / 3
  --> SNES Residual: 0.280124E-12 0.420607E-16 0.162852E-13
  --> max change: dpmx=   1.3704E+01

== RICHARDS FLOW ===============================================================
  0 2r: 4.97E-07 2x: 0.00E+00 2u: 0.00E+00 ir: 1.39E-08 iu: 0.00E+00 rsn:   0
  1 2r: 1.23E-09 2x: 9.14E+06 2u: 1.08E+03 ir: 6.53E-10 iu: 1.33E+01 rsn:   0
  2 2r: 2.87E-13 2x: 9.14E+06 2u: 1.46E-01 ir: 1.66E-14 iu: 2.40E-03 rsn:   0
 -> Cut time step: snes= -3 icut= 1 [2] t= 1.44977E-02 dt= 1.82648E-03 [y]
Newton solver reason: SNES_DIVERGED_LINEAR_SOLVE
Linear solver reason: KSP_DIVERGED_BREAKDOWN
  0 2r: 4.97E-07 2x: 0.00E+00 2u: 0.00E+00 ir: 1.39E-08 iu: 0.00E+00 rsn:   0
  1 2r: 3.60E-10 2x: 9.14E+06 2u: 5.49E+02 ir: 1.69E-10 iu: 6.74E+00 rsn:   0
  2 2r: 2.82E-13 2x: 9.14E+06 2u: 4.37E-02 ir: 1.64E-14 iu: 8.90E-04 rsn: stol

 Step      9 Time=  1.63242E-02 Dt=  1.82648E-03 [y] conv_reason: 4
  newton =   4 [      30] linear =  1624 [      9783] cuts =  1 [   2]
  --> SNES Linear/Non-Linear Iterations = 600 / 2
  --> SNES Residual: 0.281777E-12 0.423089E-16 0.163955E-13
  --> max change: dpmx=   6.7395E+00

== RICHARDS FLOW ===============================================================
  0 2r: 4.89E-07 2x: 0.00E+00 2u: 0.00E+00 ir: 1.36E-08 iu: 0.00E+00 rsn:   0
  1 2r: 3.57E-10 2x: 9.14E+06 2u: 5.39E+02 ir: 1.63E-10 iu: 6.63E+00 rsn:   0
  2 2r: 2.85E-13 2x: 9.14E+06 2u: 4.85E-02 ir: 1.72E-14 iu: 1.04E-03 rsn: stol

 Step     10 Time=  1.81507E-02 Dt=  1.82648E-03 [y] conv_reason: 4
  newton =   2 [      32] linear =   595 [     10378] cuts =  0 [   2]
  --> SNES Linear/Non-Linear Iterations = 595 / 2
  --> SNES Residual: 0.284924E-12 0.427814E-16 0.172102E-13
  --> max change: dpmx=   6.6259E+00

== RICHARDS FLOW ===============================================================
  0 2r: 4.80E-07 2x: 0.00E+00 2u: 0.00E+00 ir: 1.34E-08 iu: 0.00E+00 rsn:   0
  1 2r: 3.70E-10 2x: 9.14E+06 2u: 5.30E+02 ir: 1.57E-10 iu: 6.51E+00 rsn:   0
  2 2r: 2.81E-13 2x: 9.14E+06 2u: 5.09E-02 ir: 1.64E-14 iu: 1.14E-03 rsn: stol

 Step     11 Time=  1.99772E-02 Dt=  1.82648E-03 [y] conv_reason: 4
  newton =   2 [      34] linear =   661 [     11039] cuts =  0 [   2]
  --> SNES Linear/Non-Linear Iterations = 661 / 2
  --> SNES Residual: 0.281034E-12 0.421974E-16 0.163716E-13
  --> max change: dpmx=   6.5131E+00

== RICHARDS FLOW ===============================================================
  0 2r: 4.72E-07 2x: 0.00E+00 2u: 0.00E+00 ir: 1.32E-08 iu: 0.00E+00 rsn:   0
  1 2r: 3.17E-10 2x: 9.14E+06 2u: 5.21E+02 ir: 1.52E-10 iu: 6.40E+00 rsn:   0
  2 2r: 2.82E-13 2x: 9.14E+06 2u: 3.94E-02 ir: 1.66E-14 iu: 7.75E-04 rsn: stol

 Step     12 Time=  2.18037E-02 Dt=  1.82648E-03 [y] conv_reason: 4
  newton =   2 [      36] linear =   846 [     11885] cuts =  0 [   2]
  --> SNES Linear/Non-Linear Iterations = 846 / 2
  --> SNES Residual: 0.281696E-12 0.422968E-16 0.166305E-13
  --> max change: dpmx=   6.4019E+00

== RICHARDS FLOW ===============================================================
  0 2r: 4.64E-07 2x: 0.00E+00 2u: 0.00E+00 ir: 1.30E-08 iu: 0.00E+00 rsn:   0
  1 2r: 2.90E-10 2x: 9.14E+06 2u: 5.12E+02 ir: 1.47E-10 iu: 6.29E+00 rsn:   0
  2 2r: 2.82E-13 2x: 9.14E+06 2u: 3.53E-02 ir: 1.70E-14 iu: 6.57E-04 rsn: stol

 Step     13 Time=  2.36301E-02 Dt=  1.82648E-03 [y] conv_reason: 4
  newton =   2 [      38] linear =   605 [     12490] cuts =  0 [   2]
  --> SNES Linear/Non-Linear Iterations = 605 / 2
  --> SNES Residual: 0.281787E-12 0.423104E-16 0.170479E-13
  --> max change: dpmx=   6.2925E+00

== RICHARDS FLOW ===============================================================
  0 2r: 4.56E-07 2x: 0.00E+00 2u: 0.00E+00 ir: 1.27E-08 iu: 0.00E+00 rsn:   0
  1 2r: 4.25E-10 2x: 9.14E+06 2u: 5.03E+02 ir: 1.93E-10 iu: 6.18E+00 rsn:   0
  2 2r: 2.78E-13 2x: 9.14E+06 2u: 4.81E-02 ir: 1.66E-14 iu: 9.66E-04 rsn: stol

 Step     14 Time=  2.54566E-02 Dt=  1.82648E-03 [y] conv_reason: 4
  newton =   2 [      40] linear =   605 [     13095] cuts =  0 [   2]
  --> SNES Linear/Non-Linear Iterations = 605 / 2
  --> SNES Residual: 0.277742E-12 0.417031E-16 0.165613E-13
  --> max change: dpmx=   6.1850E+00

== RICHARDS FLOW ===============================================================
  0 2r: 4.48E-07 2x: 0.00E+00 2u: 0.00E+00 ir: 1.25E-08 iu: 0.00E+00 rsn:   0
  1 2r: 5.34E-10 2x: 9.14E+06 2u: 5.25E+02 ir: 2.94E-10 iu: 6.45E+00 rsn:   0
  2 2r: 2.82E-13 2x: 9.14E+06 2u: 5.07E-02 ir: 1.62E-14 iu: 1.00E-03 rsn: stol

 Step     15 Time=  2.73973E-02 Dt=  1.94064E-03 [y] conv_reason: 4
  newton =   2 [      42] linear =   673 [     13768] cuts =  0 [   2]
  --> SNES Linear/Non-Linear Iterations = 673 / 2
  --> SNES Residual: 0.281581E-12 0.422794E-16 0.162018E-13
  --> max change: dpmx=   6.4523E+00

 --> appending to hdf5 output file: 2D_flow-steady-state.h5
      0.01 Seconds to write HDF5 file.

== RICHARDS FLOW ===============================================================
  0 2r: 4.40E-07 2x: 0.00E+00 2u: 0.00E+00 ir: 1.23E-08 iu: 0.00E+00 rsn:   0
  1 2r: 7.60E-10 2x: 9.14E+06 2u: 9.55E+02 ir: 5.07E-10 iu: 1.17E+01 rsn:   0
  2 2r: 2.85E-13 2x: 9.14E+06 2u: 1.23E-01 ir: 1.75E-14 iu: 2.13E-03 rsn:   0
  3 2r: 2.77E-13 2x: 9.14E+06 2u: 8.59E-06 ir: 1.71E-14 iu: 1.64E-07 rsn: stol

 Step     16 Time=  3.10502E-02 Dt=  3.65297E-03 [y] conv_reason: 4
  newton =   3 [      45] linear =   926 [     14694] cuts =  0 [   2]
  --> SNES Linear/Non-Linear Iterations = 926 / 3
  --> SNES Residual: 0.276737E-12 0.415521E-16 0.170942E-13
  --> max change: dpmx=   1.1737E+01

== RICHARDS FLOW ===============================================================
  0 2r: 4.25E-07 2x: 0.00E+00 2u: 0.00E+00 ir: 1.19E-08 iu: 0.00E+00 rsn:   0
  1 2r: 2.47E-09 2x: 9.15E+06 2u: 1.79E+03 ir: 1.77E-09 iu: 2.19E+01 rsn:   0
  2 2r: 3.12E-13 2x: 9.15E+06 2u: 3.96E-01 ir: 1.66E-14 iu: 5.31E-03 rsn:   0
  3 2r: 2.74E-13 2x: 9.15E+06 2u: 7.10E-05 ir: 1.75E-14 iu: 1.25E-06 rsn: stol

 Step     17 Time=  3.83562E-02 Dt=  7.30594E-03 [y] conv_reason: 4
  newton =   3 [      48] linear =  1030 [     15724] cuts =  0 [   2]
  --> SNES Linear/Non-Linear Iterations = 1030 / 3
  --> SNES Residual: 0.274435E-12 0.412064E-16 0.174931E-13
  --> max change: dpmx=   2.1943E+01

== RICHARDS FLOW ===============================================================
  0 2r: 3.97E-07 2x: 0.00E+00 2u: 0.00E+00 ir: 1.11E-08 iu: 0.00E+00 rsn:   0
  1 2r: 7.38E-09 2x: 9.15E+06 2u: 3.13E+03 ir: 5.44E-09 iu: 3.85E+01 rsn:   0
  2 2r: 6.61E-13 2x: 9.15E+06 2u: 1.16E+00 ir: 5.09E-14 iu: 1.47E-02 rsn:   0
  3 2r: 2.78E-13 2x: 9.15E+06 2u: 4.34E-04 ir: 1.63E-14 iu: 7.03E-06 rsn: stol

 Step     18 Time=  5.29680E-02 Dt=  1.46119E-02 [y] conv_reason: 4
  newton =   3 [      51] linear =  1424 [     17148] cuts =  0 [   2]
  --> SNES Linear/Non-Linear Iterations = 1424 / 3
  --> SNES Residual: 0.278006E-12 0.417427E-16 0.162629E-13
  --> max change: dpmx=   3.8510E+01

== RICHARDS FLOW ===============================================================
  0 2r: 3.49E-07 2x: 0.00E+00 2u: 0.00E+00 ir: 9.75E-09 iu: 0.00E+00 rsn:   0
  1 2r: 2.14E-10 2x: 9.15E+06 2u: 3.85E+02 ir: 8.11E-11 iu: 4.73E+00 rsn:   0
  2 2r: 2.78E-13 2x: 9.15E+06 2u: 3.40E-02 ir: 1.72E-14 iu: 7.18E-04 rsn: stol

 Step     19 Time=  5.47945E-02 Dt=  1.82648E-03 [y] conv_reason: 4
  newton =   2 [      53] linear =   589 [     17737] cuts =  0 [   2]
  --> SNES Linear/Non-Linear Iterations = 589 / 2
  --> SNES Residual: 0.278288E-12 0.417850E-16 0.171691E-13
  --> max change: dpmx=   4.7330E+00

 --> appending to hdf5 output file: 2D_flow-steady-state.h5
      0.01 Seconds to write HDF5 file.

== RICHARDS FLOW ===============================================================
  0 2r: 3.43E-07 2x: 0.00E+00 2u: 0.00E+00 ir: 9.59E-09 iu: 0.00E+00 rsn:   0
  1 2r: 1.68E-08 2x: 9.15E+06 2u: 4.57E+03 ir: 1.15E-08 iu: 5.62E+01 rsn:   0
  2 2r: 3.33E-13 2x: 9.15E+06 2u: 2.35E+00 ir: 7.83E-14 iu: 2.93E-02 rsn:   0
  3 2r: 2.79E-13 2x: 9.15E+06 2u: 2.54E-04 ir: 1.65E-14 iu: 3.51E-06 rsn: stol

 Step     20 Time=  8.21918E-02 Dt=  2.73973E-02 [y] conv_reason: 4
  newton =   3 [      56] linear =  1254 [     18991] cuts =  0 [   2]
  --> SNES Linear/Non-Linear Iterations = 1254 / 3
  --> SNES Residual: 0.278983E-12 0.418893E-16 0.165339E-13
  --> max change: dpmx=   5.6231E+01

 --> appending to hdf5 output file: 2D_flow-steady-state.h5
      0.01 Seconds to write HDF5 file.

== RICHARDS FLOW ===============================================================
  0 2r: 2.71E-07 2x: 0.00E+00 2u: 0.00E+00 ir: 7.60E-09 iu: 0.00E+00 rsn:   0
  1 2r: 1.03E-08 2x: 9.16E+06 2u: 3.62E+03 ir: 7.14E-09 iu: 4.45E+01 rsn:   0
  2 2r: 7.90E-13 2x: 9.16E+06 2u: 1.55E+00 ir: 8.72E-14 iu: 1.92E-02 rsn:   0
  3 2r: 2.77E-13 2x: 9.16E+06 2u: 1.27E-03 ir: 1.66E-14 iu: 1.78E-05 rsn: stol

 Step     21 Time=  1.09589E-01 Dt=  2.73973E-02 [y] conv_reason: 4
  newton =   3 [      59] linear =  1094 [     20085] cuts =  0 [   2]
  --> SNES Linear/Non-Linear Iterations = 1094 / 3
  --> SNES Residual: 0.276808E-12 0.415627E-16 0.166275E-13
  --> max change: dpmx=   4.4548E+01

 --> appending to hdf5 output file: 2D_flow-steady-state.h5
      0.01 Seconds to write HDF5 file.

== RICHARDS FLOW ===============================================================
  0 2r: 2.15E-07 2x: 0.00E+00 2u: 0.00E+00 ir: 6.02E-09 iu: 0.00E+00 rsn:   0
  1 2r: 7.30E-09 2x: 9.16E+06 2u: 2.87E+03 ir: 4.43E-09 iu: 3.53E+01 rsn:   0
  2 2r: 7.15E-11 2x: 9.16E+06 2u: 9.97E-01 ir: 5.05E-11 iu: 1.26E-02 rsn:   0
  3 2r: 2.83E-13 2x: 9.16E+06 2u: 4.47E-04 ir: 1.63E-14 iu: 6.52E-06 rsn: stol

 Step     22 Time=  1.36986E-01 Dt=  2.73973E-02 [y] conv_reason: 4
  newton =   3 [      62] linear =   981 [     21066] cuts =  0 [   2]
  --> SNES Linear/Non-Linear Iterations = 981 / 3
  --> SNES Residual: 0.283315E-12 0.425398E-16 0.162993E-13
  --> max change: dpmx=   3.5277E+01

 --> appending to hdf5 output file: 2D_flow-steady-state.h5
      0.01 Seconds to write HDF5 file.

== RICHARDS FLOW ===============================================================
  0 2r: 1.70E-07 2x: 0.00E+00 2u: 0.00E+00 ir: 4.77E-09 iu: 0.00E+00 rsn:   0
  1 2r: 4.37E-09 2x: 9.16E+06 2u: 2.27E+03 ir: 2.76E-09 iu: 2.79E+01 rsn:   0
  2 2r: 3.83E-13 2x: 9.16E+06 2u: 6.50E-01 ir: 2.36E-14 iu: 8.21E-03 rsn:   0
  3 2r: 2.77E-13 2x: 9.16E+06 2u: 4.88E-04 ir: 1.71E-14 iu: 6.76E-06 rsn: stol

 Step     23 Time=  1.64384E-01 Dt=  2.73973E-02 [y] conv_reason: 4
  newton =   3 [      65] linear =  1081 [     22147] cuts =  0 [   2]
  --> SNES Linear/Non-Linear Iterations = 1081 / 3
  --> SNES Residual: 0.277264E-12 0.416313E-16 0.170847E-13
  --> max change: dpmx=   2.7926E+01

 --> appending to hdf5 output file: 2D_flow-steady-state.h5
      0.02 Seconds to write HDF5 file.

== RICHARDS FLOW ===============================================================
  0 2r: 1.35E-07 2x: 0.00E+00 2u: 0.00E+00 ir: 3.78E-09 iu: 0.00E+00 rsn:   0
  1 2r: 4.25E-09 2x: 9.17E+06 2u: 1.80E+03 ir: 1.93E-09 iu: 2.21E+01 rsn:   0
  2 2r: 3.17E-13 2x: 9.17E+06 2u: 4.10E-01 ir: 1.72E-14 iu: 5.17E-03 rsn:   0
  3 2r: 2.78E-13 2x: 9.17E+06 2u: 3.18E-04 ir: 1.73E-14 iu: 4.31E-06 rsn: stol

 Step     24 Time=  1.91781E-01 Dt=  2.73973E-02 [y] conv_reason: 4
  newton =   3 [      68] linear =   999 [     23146] cuts =  0 [   2]
  --> SNES Linear/Non-Linear Iterations = 999 / 3
  --> SNES Residual: 0.277906E-12 0.417276E-16 0.172813E-13
  --> max change: dpmx=   2.2101E+01

 --> appending to hdf5 output file: 2D_flow-steady-state.h5
      0.01 Seconds to write HDF5 file.

== RICHARDS FLOW ===============================================================
  0 2r: 1.06E-07 2x: 0.00E+00 2u: 0.00E+00 ir: 2.99E-09 iu: 0.00E+00 rsn:   0
  1 2r: 2.07E-09 2x: 9.17E+06 2u: 1.42E+03 ir: 1.07E-09 iu: 1.75E+01 rsn:   0
  2 2r: 2.86E-13 2x: 9.17E+06 2u: 2.65E-01 ir: 1.72E-14 iu: 3.35E-03 rsn:   0
  3 2r: 2.82E-13 2x: 9.17E+06 2u: 5.65E-05 ir: 1.80E-14 iu: 7.59E-07 rsn: stol

 Step     25 Time=  2.19178E-01 Dt=  2.73973E-02 [y] conv_reason: 4
  newton =   3 [      71] linear =  1039 [     24185] cuts =  0 [   2]
  --> SNES Linear/Non-Linear Iterations = 1039 / 3
  --> SNES Residual: 0.282331E-12 0.423920E-16 0.179740E-13
  --> max change: dpmx=   1.7486E+01

 --> appending to hdf5 output file: 2D_flow-steady-state.h5
      0.02 Seconds to write HDF5 file.

== RICHARDS FLOW ===============================================================
  0 2r: 8.42E-08 2x: 0.00E+00 2u: 0.00E+00 ir: 2.37E-09 iu: 0.00E+00 rsn:   0
  1 2r: 2.26E-09 2x: 9.17E+06 2u: 1.13E+03 ir: 1.04E-09 iu: 1.38E+01 rsn:   0
  2 2r: 2.77E-13 2x: 9.17E+06 2u: 1.70E-01 ir: 1.70E-14 iu: 2.19E-03 rsn:   0
  3 2r: 2.87E-13 2x: 9.17E+06 2u: 2.99E-05 ir: 1.60E-14 iu: 4.52E-07 rsn: stol

 Step     26 Time=  2.46575E-01 Dt=  2.73973E-02 [y] conv_reason: 4
  newton =   3 [      74] linear =   985 [     25170] cuts =  0 [   2]
  --> SNES Linear/Non-Linear Iterations = 985 / 3
  --> SNES Residual: 0.286655E-12 0.430413E-16 0.159911E-13
  --> max change: dpmx=   1.3833E+01

 --> appending to hdf5 output file: 2D_flow-steady-state.h5
      0.01 Seconds to write HDF5 file.

== RICHARDS FLOW ===============================================================
  0 2r: 6.66E-08 2x: 0.00E+00 2u: 0.00E+00 ir: 1.87E-09 iu: 0.00E+00 rsn:   0
  1 2r: 4.23E-09 2x: 9.17E+06 2u: 8.90E+02 ir: 6.13E-10 iu: 1.09E+01 rsn:   0
  2 2r: 2.78E-13 2x: 9.17E+06 2u: 1.02E-01 ir: 1.62E-14 iu: 1.37E-03 rsn:   0
  3 2r: 2.77E-13 2x: 9.17E+06 2u: 4.75E-04 ir: 1.65E-14 iu: 5.88E-06 rsn: stol

 Step     27 Time=  2.73973E-01 Dt=  2.73973E-02 [y] conv_reason: 4
  newton =   3 [      77] linear =  1067 [     26237] cuts =  0 [   2]
  --> SNES Linear/Non-Linear Iterations = 1067 / 3
  --> SNES Residual: 0.277126E-12 0.416105E-16 0.164596E-13
  --> max change: dpmx=   1.0941E+01

 --> appending to hdf5 output file: 2D_flow-steady-state.h5
      0.01 Seconds to write HDF5 file.

== RICHARDS FLOW ===============================================================
  0 2r: 5.27E-08 2x: 0.00E+00 2u: 0.00E+00 ir: 1.48E-09 iu: 0.00E+00 rsn:   0
  1 2r: 1.51E-09 2x: 9.17E+06 2u: 7.04E+02 ir: 7.59E-10 iu: 8.65E+00 rsn:   0
  2 2r: 2.77E-13 2x: 9.17E+06 2u: 7.28E-02 ir: 1.75E-14 iu: 9.66E-04 rsn: stol

 Step     28 Time=  3.01370E-01 Dt=  2.73973E-02 [y] conv_reason: 4
  newton =   2 [      79] linear =   694 [     26931] cuts =  0 [   2]
  --> SNES Linear/Non-Linear Iterations = 694 / 2
  --> SNES Residual: 0.276523E-12 0.415199E-16 0.175030E-13
  --> max change: dpmx=   8.6523E+00

 --> appending to hdf5 output file: 2D_flow-steady-state.h5
      0.01 Seconds to write HDF5 file.

== RICHARDS FLOW ===============================================================
  0 2r: 4.17E-08 2x: 0.00E+00 2u: 0.00E+00 ir: 1.17E-09 iu: 0.00E+00 rsn:   0
  1 2r: 5.41E-09 2x: 9.17E+06 2u: 5.57E+02 ir: 5.83E-10 iu: 6.84E+00 rsn:   0
  2 2r: 2.80E-13 2x: 9.17E+06 2u: 3.82E-02 ir: 1.79E-14 iu: 5.57E-04 rsn: stol

 Step     29 Time=  3.28767E-01 Dt=  2.73973E-02 [y] conv_reason: 4
  newton =   2 [      81] linear =  1040 [     27971] cuts =  0 [   2]
  --> SNES Linear/Non-Linear Iterations = 1040 / 2
  --> SNES Residual: 0.279618E-12 0.419846E-16 0.178820E-13
  --> max change: dpmx=   6.8419E+00

 --> appending to hdf5 output file: 2D_flow-steady-state.h5
      0.01 Seconds to write HDF5 file.

== RICHARDS FLOW ===============================================================
  0 2r: 3.29E-08 2x: 0.00E+00 2u: 0.00E+00 ir: 9.26E-10 iu: 0.00E+00 rsn:   0
  1 2r: 8.69E-10 2x: 9.17E+06 2u: 4.40E+02 ir: 4.35E-10 iu: 5.41E+00 rsn:   0
  2 2r: 1.09E-11 2x: 9.17E+06 2u: 2.41E-02 ir: 7.71E-12 iu: 3.51E-04 rsn: stol

 Step     30 Time=  3.56164E-01 Dt=  2.73973E-02 [y] conv_reason: 4
  newton =   2 [      83] linear =   669 [     28640] cuts =  0 [   2]
  --> SNES Linear/Non-Linear Iterations = 669 / 2
  --> SNES Residual: 0.109051E-10 0.163741E-14 0.770863E-11
  --> max change: dpmx=   5.4098E+00

 --> appending to hdf5 output file: 2D_flow-steady-state.h5
      0.03 Seconds to write HDF5 file.

== RICHARDS FLOW ===============================================================
  0 2r: 2.60E-08 2x: 0.00E+00 2u: 0.00E+00 ir: 7.32E-10 iu: 0.00E+00 rsn:   0
  1 2r: 4.13E-09 2x: 9.17E+06 2u: 3.48E+02 ir: 3.37E-10 iu: 4.28E+00 rsn:   0
  2 2r: 2.85E-13 2x: 9.17E+06 2u: 1.50E-02 ir: 1.59E-14 iu: 2.24E-04 rsn: stol

 Step     31 Time=  3.83562E-01 Dt=  2.73973E-02 [y] conv_reason: 4
  newton =   2 [      85] linear =   827 [     29467] cuts =  0 [   2]
  --> SNES Linear/Non-Linear Iterations = 827 / 2
  --> SNES Residual: 0.285315E-12 0.428401E-16 0.158744E-13
  --> max change: dpmx=   4.2773E+00

 --> appending to hdf5 output file: 2D_flow-steady-state.h5
      0.01 Seconds to write HDF5 file.

== RICHARDS FLOW ===============================================================
  0 2r: 2.06E-08 2x: 0.00E+00 2u: 0.00E+00 ir: 5.79E-10 iu: 0.00E+00 rsn:   0
  1 2r: 5.41E-10 2x: 9.17E+06 2u: 2.75E+02 ir: 2.50E-10 iu: 3.38E+00 rsn:   0
  2 2r: 2.78E-13 2x: 9.17E+06 2u: 1.13E-02 ir: 1.62E-14 iu: 1.64E-04 rsn: stol

 Step     32 Time=  4.10959E-01 Dt=  2.73973E-02 [y] conv_reason: 4
  newton =   2 [      87] linear =   657 [     30124] cuts =  0 [   2]
  --> SNES Linear/Non-Linear Iterations = 657 / 2
  --> SNES Residual: 0.277796E-12 0.417111E-16 0.161862E-13
  --> max change: dpmx=   3.3816E+00

 --> appending to hdf5 output file: 2D_flow-steady-state.h5
      0.01 Seconds to write HDF5 file.

== RICHARDS FLOW ===============================================================
  0 2r: 1.63E-08 2x: 0.00E+00 2u: 0.00E+00 ir: 4.58E-10 iu: 0.00E+00 rsn:   0
  1 2r: 3.13E-09 2x: 9.17E+06 2u: 2.18E+02 ir: 2.18E-10 iu: 2.67E+00 rsn:   0
  2 2r: 2.81E-13 2x: 9.17E+06 2u: 7.48E-03 ir: 1.74E-14 iu: 1.14E-04 rsn: stol

 Step     33 Time=  4.38356E-01 Dt=  2.73973E-02 [y] conv_reason: 4
  newton =   2 [      89] linear =   703 [     30827] cuts =  0 [   2]
  --> SNES Linear/Non-Linear Iterations = 703 / 2
  --> SNES Residual: 0.281007E-12 0.421933E-16 0.174139E-13
  --> max change: dpmx=   2.6734E+00

 --> appending to hdf5 output file: 2D_flow-steady-state.h5
      0.01 Seconds to write HDF5 file.

== RICHARDS FLOW ===============================================================
  0 2r: 1.29E-08 2x: 0.00E+00 2u: 0.00E+00 ir: 3.62E-10 iu: 0.00E+00 rsn:   0
  1 2r: 4.40E-10 2x: 9.17E+06 2u: 1.72E+02 ir: 1.38E-10 iu: 2.11E+00 rsn:   0
  2 2r: 2.77E-13 2x: 9.17E+06 2u: 3.42E-03 ir: 1.66E-14 iu: 6.35E-05 rsn: stol

 Step     34 Time=  4.65753E-01 Dt=  2.73973E-02 [y] conv_reason: 4
  newton =   2 [      91] linear =   731 [     31558] cuts =  0 [   2]
  --> SNES Linear/Non-Linear Iterations = 731 / 2
  --> SNES Residual: 0.277401E-12 0.416519E-16 0.166077E-13
  --> max change: dpmx=   2.1135E+00

 --> appending to hdf5 output file: 2D_flow-steady-state.h5
      0.02 Seconds to write HDF5 file.

== RICHARDS FLOW ===============================================================
  0 2r: 1.02E-08 2x: 0.00E+00 2u: 0.00E+00 ir: 2.86E-10 iu: 0.00E+00 rsn:   0
  1 2r: 8.38E-11 2x: 9.17E+06 2u: 1.36E+02 ir: 4.60E-11 iu: 1.67E+00 rsn:   0
  2 2r: 2.69E-13 2x: 9.17E+06 2u: 2.95E-03 ir: 1.66E-14 iu: 4.69E-05 rsn: stol

 Step     35 Time=  4.93151E-01 Dt=  2.73973E-02 [y] conv_reason: 4
  newton =   2 [      93] linear =   807 [     32365] cuts =  0 [   2]
  --> SNES Linear/Non-Linear Iterations = 807 / 2
  --> SNES Residual: 0.268553E-12 0.403232E-16 0.165910E-13
  --> max change: dpmx=   1.6708E+00

 --> appending to hdf5 output file: 2D_flow-steady-state.h5
      0.01 Seconds to write HDF5 file.

== RICHARDS FLOW ===============================================================
  0 2r: 8.04E-09 2x: 0.00E+00 2u: 0.00E+00 ir: 2.26E-10 iu: 0.00E+00 rsn:   0
  1 2r: 7.88E-10 2x: 9.17E+06 2u: 1.07E+02 ir: 6.43E-11 iu: 1.32E+00 rsn:   0
  2 2r: 2.70E-13 2x: 9.17E+06 2u: 1.78E-03 ir: 1.53E-14 iu: 2.95E-05 rsn: stol

 Step     36 Time=  5.20548E-01 Dt=  2.73973E-02 [y] conv_reason: 4
  newton =   2 [      95] linear =   713 [     33078] cuts =  0 [   2]
  --> SNES Linear/Non-Linear Iterations = 713 / 2
  --> SNES Residual: 0.270350E-12 0.405932E-16 0.152590E-13
  --> max change: dpmx=   1.3208E+00

 --> appending to hdf5 output file: 2D_flow-steady-state.h5
      0.01 Seconds to write HDF5 file.

== RICHARDS FLOW ===============================================================
  0 2r: 6.36E-09 2x: 0.00E+00 2u: 0.00E+00 ir: 1.79E-10 iu: 0.00E+00 rsn:   0
  1 2r: 2.42E-10 2x: 9.17E+06 2u: 8.49E+01 ir: 3.41E-11 iu: 1.04E+00 rsn:   0
  2 2r: 2.76E-13 2x: 9.17E+06 2u: 7.96E-04 ir: 1.71E-14 iu: 1.70E-05 rsn: stol

 Step     37 Time=  5.47945E-01 Dt=  2.73973E-02 [y] conv_reason: 4
  newton =   2 [      97] linear =   704 [     33782] cuts =  0 [   2]
  --> SNES Linear/Non-Linear Iterations = 704 / 2
  --> SNES Residual: 0.275946E-12 0.414333E-16 0.170692E-13
  --> max change: dpmx=   1.0441E+00

 --> appending to hdf5 output file: 2D_flow-steady-state.h5
      0.01 Seconds to write HDF5 file.

== RICHARDS FLOW ===============================================================
  0 2r: 5.03E-09 2x: 0.00E+00 2u: 0.00E+00 ir: 1.41E-10 iu: 0.00E+00 rsn:   0
  1 2r: 8.32E-11 2x: 9.17E+06 2u: 6.72E+01 ir: 1.58E-11 iu: 8.25E-01 rsn:   0
  2 2r: 2.77E-13 2x: 9.17E+06 2u: 5.24E-04 ir: 1.63E-14 iu: 1.19E-05 rsn: stol

 Step     38 Time=  5.75342E-01 Dt=  2.73973E-02 [y] conv_reason: 4
  newton =   2 [      99] linear =   612 [     34394] cuts =  0 [   2]
  --> SNES Linear/Non-Linear Iterations = 612 / 2
  --> SNES Residual: 0.277182E-12 0.416189E-16 0.162623E-13
  --> max change: dpmx=   8.2533E-01

 --> appending to hdf5 output file: 2D_flow-steady-state.h5
      0.01 Seconds to write HDF5 file.

== RICHARDS FLOW ===============================================================
  0 2r: 3.97E-09 2x: 0.00E+00 2u: 0.00E+00 ir: 1.12E-10 iu: 0.00E+00 rsn:   0
  1 2r: 4.29E-11 2x: 9.17E+06 2u: 5.31E+01 ir: 7.87E-12 iu: 6.52E-01 rsn:   0
  2 2r: 2.77E-13 2x: 9.17E+06 2u: 5.47E-04 ir: 1.60E-14 iu: 1.00E-05 rsn: stol

 Step     39 Time=  6.02740E-01 Dt=  2.73973E-02 [y] conv_reason: 4
  newton =   2 [     101] linear =   653 [     35047] cuts =  0 [   2]
  --> SNES Linear/Non-Linear Iterations = 653 / 2
  --> SNES Residual: 0.276971E-12 0.415872E-16 0.160163E-13
  --> max change: dpmx=   6.5241E-01

 --> appending to hdf5 output file: 2D_flow-steady-state.h5
      0.01 Seconds to write HDF5 file.

== RICHARDS FLOW ===============================================================
  0 2r: 3.14E-09 2x: 0.00E+00 2u: 0.00E+00 ir: 8.83E-11 iu: 0.00E+00 rsn:   0
  1 2r: 2.34E-11 2x: 9.17E+06 2u: 4.20E+01 ir: 2.82E-12 iu: 5.16E-01 rsn:   0
  2 2r: 2.71E-13 2x: 9.17E+06 2u: 2.16E-04 ir: 1.65E-14 iu: 4.20E-06 rsn: stol

 Step     40 Time=  6.30137E-01 Dt=  2.73973E-02 [y] conv_reason: 4
  newton =   2 [     103] linear =   733 [     35780] cuts =  0 [   2]
  --> SNES Linear/Non-Linear Iterations = 733 / 2
  --> SNES Residual: 0.270630E-12 0.406351E-16 0.165442E-13
  --> max change: dpmx=   5.1572E-01

 --> appending to hdf5 output file: 2D_flow-steady-state.h5
      0.01 Seconds to write HDF5 file.

== RICHARDS FLOW ===============================================================
  0 2r: 2.48E-09 2x: 0.00E+00 2u: 0.00E+00 ir: 6.98E-11 iu: 0.00E+00 rsn:   0
  1 2r: 1.42E-12 2x: 9.17E+06 2u: 3.32E+01 ir: 5.71E-13 iu: 4.08E-01 rsn:   0
  2 2r: 2.67E-13 2x: 9.17E+06 2u: 2.58E-04 ir: 1.58E-14 iu: 5.91E-06 rsn: stol

 Step     41 Time=  6.57534E-01 Dt=  2.73973E-02 [y] conv_reason: 4
  newton =   2 [     105] linear =   660 [     36440] cuts =  0 [   2]
  --> SNES Linear/Non-Linear Iterations = 660 / 2
  --> SNES Residual: 0.266500E-12 0.400151E-16 0.157973E-13
  --> max change: dpmx=   4.0766E-01

 --> appending to hdf5 output file: 2D_flow-steady-state.h5
      0.01 Seconds to write HDF5 file.

== RICHARDS FLOW ===============================================================
  0 2r: 1.96E-09 2x: 0.00E+00 2u: 0.00E+00 ir: 5.52E-11 iu: 0.00E+00 rsn:   0
  1 2r: 1.05E-12 2x: 9.17E+06 2u: 2.62E+01 ir: 3.56E-13 iu: 3.22E-01 rsn:   0
  2 2r: 2.73E-13 2x: 9.17E+06 2u: 2.54E-04 ir: 1.64E-14 iu: 5.61E-06 rsn: stol

 Step     42 Time=  6.84932E-01 Dt=  2.73973E-02 [y] conv_reason: 4
  newton =   2 [     107] linear =   634 [     37074] cuts =  0 [   2]
  --> SNES Linear/Non-Linear Iterations = 634 / 2
  --> SNES Residual: 0.272949E-12 0.409833E-16 0.163613E-13
  --> max change: dpmx=   3.2224E-01

 --> appending to hdf5 output file: 2D_flow-steady-state.h5
      0.01 Seconds to write HDF5 file.

== RICHARDS FLOW ===============================================================
  0 2r: 1.55E-09 2x: 0.00E+00 2u: 0.00E+00 ir: 4.36E-11 iu: 0.00E+00 rsn:   0
  1 2r: 3.99E-13 2x: 9.17E+06 2u: 2.07E+01 ir: 2.24E-13 iu: 2.55E-01 rsn:   0
  2 2r: 2.78E-13 2x: 9.17E+06 2u: 5.18E-05 ir: 1.62E-14 iu: 8.02E-07 rsn: stol

 Step     43 Time=  7.12329E-01 Dt=  2.73973E-02 [y] conv_reason: 4
  newton =   2 [     109] linear =   733 [     37807] cuts =  0 [   2]
  --> SNES Linear/Non-Linear Iterations = 733 / 2
  --> SNES Residual: 0.278382E-12 0.417990E-16 0.161988E-13
  --> max change: dpmx=   2.5472E-01

 --> appending to hdf5 output file: 2D_flow-steady-state.h5
      0.01 Seconds to write HDF5 file.

== RICHARDS FLOW ===============================================================
  0 2r: 1.23E-09 2x: 0.00E+00 2u: 0.00E+00 ir: 3.45E-11 iu: 0.00E+00 rsn:   0
  1 2r: 7.67E-13 2x: 9.17E+06 2u: 1.64E+01 ir: 1.40E-13 iu: 2.01E-01 rsn:   0
  2 2r: 2.73E-13 2x: 9.17E+06 2u: 1.38E-04 ir: 1.69E-14 iu: 3.34E-06 rsn: stol

 Step     44 Time=  7.39726E-01 Dt=  2.73973E-02 [y] conv_reason: 4
  newton =   2 [     111] linear =   740 [     38547] cuts =  0 [   2]
  --> SNES Linear/Non-Linear Iterations = 740 / 2
  --> SNES Residual: 0.272795E-12 0.409602E-16 0.168917E-13
  --> max change: dpmx=   2.0135E-01

 --> appending to hdf5 output file: 2D_flow-steady-state.h5
      0.01 Seconds to write HDF5 file.

== RICHARDS FLOW ===============================================================
  0 2r: 9.69E-10 2x: 0.00E+00 2u: 0.00E+00 ir: 2.72E-11 iu: 0.00E+00 rsn:   0
  1 2r: 6.13E-13 2x: 9.17E+06 2u: 1.29E+01 ir: 8.35E-14 iu: 1.59E-01 rsn:   0
  2 2r: 2.81E-13 2x: 9.17E+06 2u: 8.53E-05 ir: 1.57E-14 iu: 2.18E-06 rsn: stol

 Step     45 Time=  7.67123E-01 Dt=  2.73973E-02 [y] conv_reason: 4
  newton =   2 [     113] linear =   668 [     39215] cuts =  0 [   2]
  --> SNES Linear/Non-Linear Iterations = 668 / 2
  --> SNES Residual: 0.281051E-12 0.421998E-16 0.156795E-13
  --> max change: dpmx=   1.5916E-01

 --> appending to hdf5 output file: 2D_flow-steady-state.h5
      0.01 Seconds to write HDF5 file.

== RICHARDS FLOW ===============================================================
  0 2r: 7.66E-10 2x: 0.00E+00 2u: 0.00E+00 ir: 2.15E-11 iu: 0.00E+00 rsn:   0
  1 2r: 3.85E-13 2x: 9.17E+06 2u: 1.02E+01 ir: 5.60E-14 iu: 1.26E-01 rsn:   0
  2 2r: 2.68E-13 2x: 9.17E+06 2u: 4.79E-05 ir: 1.66E-14 iu: 1.18E-06 rsn: stol

 Step     46 Time=  7.94521E-01 Dt=  2.73973E-02 [y] conv_reason: 4
  newton =   2 [     115] linear =   628 [     39843] cuts =  0 [   2]
  --> SNES Linear/Non-Linear Iterations = 628 / 2
  --> SNES Residual: 0.268327E-12 0.402893E-16 0.166027E-13
  --> max change: dpmx=   1.2581E-01

 --> appending to hdf5 output file: 2D_flow-steady-state.h5
      0.01 Seconds to write HDF5 file.

== RICHARDS FLOW ===============================================================
  0 2r: 6.06E-10 2x: 0.00E+00 2u: 0.00E+00 ir: 1.70E-11 iu: 0.00E+00 rsn:   0
  1 2r: 4.01E-13 2x: 9.17E+06 2u: 8.09E+00 ir: 3.70E-14 iu: 9.94E-02 rsn:   0
  2 2r: 2.70E-13 2x: 9.17E+06 2u: 7.31E-05 ir: 1.55E-14 iu: 1.65E-06 rsn: stol

 Step     47 Time=  8.21918E-01 Dt=  2.73973E-02 [y] conv_reason: 4
  newton =   2 [     117] linear =   705 [     40548] cuts =  0 [   2]
  --> SNES Linear/Non-Linear Iterations = 705 / 2
  --> SNES Residual: 0.270249E-12 0.405780E-16 0.155342E-13
  --> max change: dpmx=   9.9446E-02

 --> appending to hdf5 output file: 2D_flow-steady-state.h5
      0.01 Seconds to write HDF5 file.

== RICHARDS FLOW ===============================================================
  0 2r: 4.79E-10 2x: 0.00E+00 2u: 0.00E+00 ir: 1.35E-11 iu: 0.00E+00 rsn:   0
  1 2r: 3.72E-13 2x: 9.17E+06 2u: 6.40E+00 ir: 3.24E-14 iu: 7.86E-02 rsn:   0
  2 2r: 2.73E-13 2x: 9.17E+06 2u: 3.74E-05 ir: 1.71E-14 iu: 9.67E-07 rsn: stol

 Step     48 Time=  8.49315E-01 Dt=  2.73973E-02 [y] conv_reason: 4
  newton =   2 [     119] linear =   682 [     41230] cuts =  0 [   2]
  --> SNES Linear/Non-Linear Iterations = 682 / 2
  --> SNES Residual: 0.273329E-12 0.410404E-16 0.170620E-13
  --> max change: dpmx=   7.8608E-02

 --> appending to hdf5 output file: 2D_flow-steady-state.h5
      0.01 Seconds to write HDF5 file.

== RICHARDS FLOW ===============================================================
  0 2r: 3.78E-10 2x: 0.00E+00 2u: 0.00E+00 ir: 1.06E-11 iu: 0.00E+00 rsn:   0
  1 2r: 3.22E-13 2x: 9.17E+06 2u: 5.06E+00 ir: 2.40E-14 iu: 6.21E-02 rsn:   0
  2 2r: 2.75E-13 2x: 9.17E+06 2u: 2.70E-05 ir: 1.61E-14 iu: 6.89E-07 rsn: stol

 Step     49 Time=  8.76712E-01 Dt=  2.73973E-02 [y] conv_reason: 4
  newton =   2 [     121] linear =   660 [     41890] cuts =  0 [   2]
  --> SNES Linear/Non-Linear Iterations = 660 / 2
  --> SNES Residual: 0.274889E-12 0.412746E-16 0.160888E-13
  --> max change: dpmx=   6.2136E-02

 --> appending to hdf5 output file: 2D_flow-steady-state.h5
      0.01 Seconds to write HDF5 file.

== RICHARDS FLOW ===============================================================
  0 2r: 2.99E-10 2x: 0.00E+00 2u: 0.00E+00 ir: 8.41E-12 iu: 0.00E+00 rsn:   0
  1 2r: 3.26E-13 2x: 9.17E+06 2u: 4.00E+00 ir: 2.54E-14 iu: 4.91E-02 rsn:   0
 -> Cut time step: snes= -3 icut= 1 [3] t= 8.76712E-01 dt= 1.36986E-02 [y]
Newton solver reason: SNES_DIVERGED_LINEAR_SOLVE
Linear solver reason: KSP_DIVERGED_BREAKDOWN
  0 2r: 2.99E-10 2x: 0.00E+00 2u: 0.00E+00 ir: 8.41E-12 iu: 0.00E+00 rsn:   0
  1 2r: 3.17E-13 2x: 9.17E+06 2u: 2.23E+00 ir: 2.00E-14 iu: 2.74E-02 rsn:   0
  2 2r: 2.82E-13 2x: 9.17E+06 2u: 2.74E-05 ir: 1.69E-14 iu: 6.51E-07 rsn: stol

 Step     50 Time=  8.90411E-01 Dt=  1.36986E-02 [y] conv_reason: 4
  newton =   3 [     124] linear =  1706 [     43596] cuts =  1 [   3]
  --> SNES Linear/Non-Linear Iterations = 1108 / 2
  --> SNES Residual: 0.281868E-12 0.423225E-16 0.169050E-13
  --> max change: dpmx=   2.7432E-02

== RICHARDS FLOW ===============================================================
  0 2r: 2.64E-10 2x: 0.00E+00 2u: 0.00E+00 ir: 7.42E-12 iu: 0.00E+00 rsn:   0
  1 2r: 2.92E-13 2x: 9.17E+06 2u: 1.97E+00 ir: 1.75E-14 iu: 2.42E-02 rsn:   0
 -> Cut time step: snes= -3 icut= 1 [4] t= 8.90411E-01 dt= 6.84932E-03 [y]
Newton solver reason: SNES_DIVERGED_LINEAR_SOLVE
Linear solver reason: KSP_DIVERGED_BREAKDOWN
  0 2r: 2.64E-10 2x: 0.00E+00 2u: 0.00E+00 ir: 7.42E-12 iu: 0.00E+00 rsn:   0
  1 2r: 3.14E-13 2x: 9.17E+06 2u: 1.05E+00 ir: 2.31E-14 iu: 1.29E-02 rsn:   0
 -> Cut time step: snes= -3 icut= 2 [5] t= 8.90411E-01 dt= 3.42466E-03 [y]
Newton solver reason: SNES_DIVERGED_LINEAR_SOLVE
Linear solver reason: KSP_DIVERGED_BREAKDOWN
  0 2r: 2.64E-10 2x: 0.00E+00 2u: 0.00E+00 ir: 7.42E-12 iu: 0.00E+00 rsn:   0
  1 2r: 3.08E-13 2x: 9.17E+06 2u: 5.40E-01 ir: 1.94E-14 iu: 6.64E-03 rsn:   0
  2 2r: 2.79E-13 2x: 9.17E+06 2u: 1.75E-05 ir: 1.66E-14 iu: 3.69E-07 rsn: stol

 Step     51 Time=  8.93836E-01 Dt=  3.42466E-03 [y] conv_reason: 4
  newton =   4 [     128] linear =  2003 [     45599] cuts =  2 [   5]
  --> SNES Linear/Non-Linear Iterations = 733 / 2
  --> SNES Residual: 0.278656E-12 0.418402E-16 0.166177E-13
  --> max change: dpmx=   6.6381E-03

== RICHARDS FLOW ===============================================================
  0 2r: 2.56E-10 2x: 0.00E+00 2u: 0.00E+00 ir: 7.19E-12 iu: 0.00E+00 rsn:   0
  1 2r: 2.75E-13 2x: 9.17E+06 2u: 5.23E-01 ir: 1.66E-14 iu: 6.43E-03 rsn:   0
  2 2r: 2.72E-13 2x: 9.17E+06 2u: 3.02E-07 ir: 1.69E-14 iu: 5.55E-09 rsn: stol

 Step     52 Time=  8.97260E-01 Dt=  3.42466E-03 [y] conv_reason: 4
  newton =   2 [     130] linear =   674 [     46273] cuts =  0 [   5]
  --> SNES Linear/Non-Linear Iterations = 674 / 2
  --> SNES Residual: 0.272400E-12 0.409010E-16 0.168971E-13
  --> max change: dpmx=   6.4252E-03

== RICHARDS FLOW ===============================================================
  0 2r: 2.47E-10 2x: 0.00E+00 2u: 0.00E+00 ir: 6.96E-12 iu: 0.00E+00 rsn:   0
  1 2r: 2.85E-13 2x: 9.17E+06 2u: 5.06E-01 ir: 1.75E-14 iu: 6.22E-03 rsn:   0
  2 2r: 2.73E-13 2x: 9.17E+06 2u: 1.17E-05 ir: 1.69E-14 iu: 2.56E-07 rsn: stol

 Step     53 Time=  9.00685E-01 Dt=  3.42466E-03 [y] conv_reason: 4
  newton =   2 [     132] linear =   747 [     47020] cuts =  0 [   5]
  --> SNES Linear/Non-Linear Iterations = 747 / 2
  --> SNES Residual: 0.272786E-12 0.409589E-16 0.168842E-13
  --> max change: dpmx=   6.2191E-03

== RICHARDS FLOW ===============================================================
  0 2r: 2.40E-10 2x: 0.00E+00 2u: 0.00E+00 ir: 6.73E-12 iu: 0.00E+00 rsn:   0
  1 2r: 2.84E-13 2x: 9.17E+06 2u: 4.90E-01 ir: 1.74E-14 iu: 6.02E-03 rsn:   0
  2 2r: 2.76E-13 2x: 9.17E+06 2u: 9.96E-06 ir: 1.76E-14 iu: 2.24E-07 rsn: stol

 Step     54 Time=  9.04110E-01 Dt=  3.42466E-03 [y] conv_reason: 4
  newton =   2 [     134] linear =   673 [     47693] cuts =  0 [   5]
  --> SNES Linear/Non-Linear Iterations = 673 / 2
  --> SNES Residual: 0.275776E-12 0.414078E-16 0.176351E-13
  --> max change: dpmx=   6.0196E-03

 --> appending to hdf5 output file: 2D_flow-steady-state.h5
      0.01 Seconds to write HDF5 file.

== RICHARDS FLOW ===============================================================
  0 2r: 2.32E-10 2x: 0.00E+00 2u: 0.00E+00 ir: 6.52E-12 iu: 0.00E+00 rsn:   0
  1 2r: 2.89E-13 2x: 9.17E+06 2u: 4.74E-01 ir: 2.42E-14 iu: 5.83E-03 rsn:   0
  2 2r: 2.79E-13 2x: 9.17E+06 2u: 2.88E-06 ir: 1.62E-14 iu: 6.75E-08 rsn: stol

 Step     55 Time=  9.07534E-01 Dt=  3.42466E-03 [y] conv_reason: 4
  newton =   2 [     136] linear =   698 [     48391] cuts =  0 [   5]
  --> SNES Linear/Non-Linear Iterations = 698 / 2
  --> SNES Residual: 0.278612E-12 0.418336E-16 0.161877E-13
  --> max change: dpmx=   5.8266E-03

== RICHARDS FLOW ===============================================================
  0 2r: 2.24E-10 2x: 0.00E+00 2u: 0.00E+00 ir: 6.31E-12 iu: 0.00E+00 rsn:   0
  1 2r: 3.14E-13 2x: 9.17E+06 2u: 4.59E-01 ir: 1.76E-14 iu: 5.64E-03 rsn:   0
 -> Cut time step: snes= -3 icut= 1 [6] t= 9.07534E-01 dt= 1.71233E-03 [y]
Newton solver reason: SNES_DIVERGED_LINEAR_SOLVE
Linear solver reason: KSP_DIVERGED_BREAKDOWN
  0 2r: 2.24E-10 2x: 0.00E+00 2u: 0.00E+00 ir: 6.31E-12 iu: 0.00E+00 rsn:   0
  1 2r: 2.75E-13 2x: 9.17E+06 2u: 2.33E-01 ir: 1.57E-14 iu: 2.87E-03 rsn:   0
  2 2r: 2.66E-13 2x: 9.17E+06 2u: 1.38E-06 ir: 1.65E-14 iu: 2.86E-08 rsn: stol

 Step     56 Time=  9.09247E-01 Dt=  1.71233E-03 [y] conv_reason: 4
  newton =   3 [     139] linear =  1307 [     49698] cuts =  1 [   6]
  --> SNES Linear/Non-Linear Iterations = 724 / 2
  --> SNES Residual: 0.265786E-12 0.399079E-16 0.165245E-13
  --> max change: dpmx=   2.8658E-03

== RICHARDS FLOW ===============================================================
  0 2r: 2.21E-10 2x: 0.00E+00 2u: 0.00E+00 ir: 6.21E-12 iu: 0.00E+00 rsn:   0
  1 2r: 3.10E-13 2x: 9.17E+06 2u: 2.29E-01 ir: 1.93E-14 iu: 2.82E-03 rsn:   0
  2 2r: 2.71E-13 2x: 9.17E+06 2u: 1.77E-05 ir: 1.52E-14 iu: 3.93E-07 rsn: stol

 Step     57 Time=  9.10959E-01 Dt=  1.71233E-03 [y] conv_reason: 4
  newton =   2 [     141] linear =   627 [     50325] cuts =  0 [   6]
  --> SNES Linear/Non-Linear Iterations = 627 / 2
  --> SNES Residual: 0.270977E-12 0.406873E-16 0.151742E-13
  --> max change: dpmx=   2.8191E-03

== RICHARDS FLOW ===============================================================
  0 2r: 2.17E-10 2x: 0.00E+00 2u: 0.00E+00 ir: 6.10E-12 iu: 0.00E+00 rsn:   0
  1 2r: 3.08E-13 2x: 9.17E+06 2u: 2.26E-01 ir: 1.88E-14 iu: 2.77E-03 rsn:   0
  2 2r: 2.73E-13 2x: 9.17E+06 2u: 1.79E-05 ir: 1.57E-14 iu: 3.90E-07 rsn: stol

 Step     58 Time=  9.12671E-01 Dt=  1.71233E-03 [y] conv_reason: 4
  newton =   2 [     143] linear =   602 [     50927] cuts =  0 [   6]
  --> SNES Linear/Non-Linear Iterations = 602 / 2
  --> SNES Residual: 0.273240E-12 0.410270E-16 0.157415E-13
  --> max change: dpmx=   2.7731E-03

== RICHARDS FLOW ===============================================================
  0 2r: 2.14E-10 2x: 0.00E+00 2u: 0.00E+00 ir: 6.00E-12 iu: 0.00E+00 rsn:   0
  1 2r: 3.07E-13 2x: 9.17E+06 2u: 2.22E-01 ir: 1.97E-14 iu: 2.73E-03 rsn:   0
 -> Cut time step: snes= -3 icut= 1 [7] t= 9.12671E-01 dt= 8.56164E-04 [y]
Newton solver reason: SNES_DIVERGED_LINEAR_SOLVE
Linear solver reason: KSP_DIVERGED_BREAKDOWN
  0 2r: 2.14E-10 2x: 0.00E+00 2u: 0.00E+00 ir: 6.00E-12 iu: 0.00E+00 rsn:   0
  1 2r: 3.01E-13 2x: 9.17E+06 2u: 1.12E-01 ir: 1.63E-14 iu: 1.38E-03 rsn:   0
  2 2r: 2.76E-13 2x: 9.17E+06 2u: 1.38E-05 ir: 1.66E-14 iu: 2.56E-07 rsn: stol

 Step     59 Time=  9.13527E-01 Dt=  8.56164E-04 [y] conv_reason: 4
  newton =   3 [     146] linear =   978 [     51905] cuts =  1 [   7]
  --> SNES Linear/Non-Linear Iterations = 539 / 2
  --> SNES Residual: 0.275502E-12 0.413667E-16 0.165862E-13
  --> max change: dpmx=   1.3752E-03

== RICHARDS FLOW ===============================================================
  0 2r: 2.12E-10 2x: 0.00E+00 2u: 0.00E+00 ir: 5.96E-12 iu: 0.00E+00 rsn:   0
  1 2r: 2.88E-13 2x: 9.17E+06 2u: 1.11E-01 ir: 1.65E-14 iu: 1.36E-03 rsn:   0
  2 2r: 2.75E-13 2x: 9.17E+06 2u: 7.67E-06 ir: 1.71E-14 iu: 1.66E-07 rsn: stol

 Step     60 Time=  9.14384E-01 Dt=  8.56164E-04 [y] conv_reason: 4
  newton =   2 [     148] linear =   560 [     52465] cuts =  0 [   7]
  --> SNES Linear/Non-Linear Iterations = 560 / 2
  --> SNES Residual: 0.275090E-12 0.413049E-16 0.171031E-13
  --> max change: dpmx=   1.3639E-03

== RICHARDS FLOW ===============================================================
  0 2r: 2.10E-10 2x: 0.00E+00 2u: 0.00E+00 ir: 5.91E-12 iu: 0.00E+00 rsn:   0
  1 2r: 3.05E-13 2x: 9.17E+06 2u: 1.10E-01 ir: 1.70E-14 iu: 1.35E-03 rsn:   0
  2 2r: 2.67E-13 2x: 9.17E+06 2u: 1.27E-05 ir: 1.58E-14 iu: 1.94E-07 rsn: stol

 Step     61 Time=  9.15240E-01 Dt=  8.56164E-04 [y] conv_reason: 4
  newton =   2 [     150] linear =   563 [     53028] cuts =  0 [   7]
  --> SNES Linear/Non-Linear Iterations = 563 / 2
  --> SNES Residual: 0.267077E-12 0.401016E-16 0.157735E-13
  --> max change: dpmx=   1.3527E-03

== RICHARDS FLOW ===============================================================
  0 2r: 2.08E-10 2x: 0.00E+00 2u: 0.00E+00 ir: 5.86E-12 iu: 0.00E+00 rsn:   0
  1 2r: 3.09E-13 2x: 9.17E+06 2u: 1.09E-01 ir: 1.88E-14 iu: 1.34E-03 rsn:   0
  2 2r: 2.76E-13 2x: 9.17E+06 2u: 9.75E-06 ir: 1.57E-14 iu: 2.48E-07 rsn: stol

 Step     62 Time=  9.16096E-01 Dt=  8.56164E-04 [y] conv_reason: 4
  newton =   2 [     152] linear =   571 [     53599] cuts =  0 [   7]
  --> SNES Linear/Non-Linear Iterations = 571 / 2
  --> SNES Residual: 0.275843E-12 0.414178E-16 0.157480E-13
  --> max change: dpmx=   1.3416E-03

== RICHARDS FLOW ===============================================================
  0 2r: 2.07E-10 2x: 0.00E+00 2u: 0.00E+00 ir: 5.81E-12 iu: 0.00E+00 rsn:   0
  1 2r: 3.10E-13 2x: 9.17E+06 2u: 1.08E-01 ir: 2.14E-14 iu: 1.33E-03 rsn:   0
  2 2r: 2.76E-13 2x: 9.17E+06 2u: 1.20E-05 ir: 1.68E-14 iu: 2.86E-07 rsn: stol

 Step     63 Time=  9.16952E-01 Dt=  8.56164E-04 [y] conv_reason: 4
  newton =   2 [     154] linear =   588 [     54187] cuts =  0 [   7]
  --> SNES Linear/Non-Linear Iterations = 588 / 2
  --> SNES Residual: 0.276395E-12 0.415007E-16 0.167668E-13
  --> max change: dpmx=   1.3305E-03

== RICHARDS FLOW ===============================================================
  0 2r: 2.05E-10 2x: 0.00E+00 2u: 0.00E+00 ir: 5.76E-12 iu: 0.00E+00 rsn:   0
  1 2r: 3.07E-13 2x: 9.17E+06 2u: 1.07E-01 ir: 1.76E-14 iu: 1.32E-03 rsn:   0
  2 2r: 2.69E-13 2x: 9.17E+06 2u: 1.19E-05 ir: 1.63E-14 iu: 1.99E-07 rsn: stol

 Step     64 Time=  9.17808E-01 Dt=  8.56164E-04 [y] conv_reason: 4
  newton =   2 [     156] linear =   550 [     54737] cuts =  0 [   7]
  --> SNES Linear/Non-Linear Iterations = 550 / 2
  --> SNES Residual: 0.269472E-12 0.404612E-16 0.162846E-13
  --> max change: dpmx=   1.3196E-03

== RICHARDS FLOW ===============================================================
  0 2r: 2.03E-10 2x: 0.00E+00 2u: 0.00E+00 ir: 5.71E-12 iu: 0.00E+00 rsn:   0
  1 2r: 2.86E-13 2x: 9.17E+06 2u: 2.11E-01 ir: 1.69E-14 iu: 2.60E-03 rsn:   0
  2 2r: 2.72E-13 2x: 9.17E+06 2u: 9.11E-06 ir: 1.71E-14 iu: 2.23E-07 rsn: stol

 Step     65 Time=  9.19521E-01 Dt=  1.71233E-03 [y] conv_reason: 4
  newton =   2 [     158] linear =   677 [     55414] cuts =  0 [   7]
  --> SNES Linear/Non-Linear Iterations = 677 / 2
  --> SNES Residual: 0.272417E-12 0.409035E-16 0.171349E-13
  --> max change: dpmx=   2.5962E-03

== RICHARDS FLOW ===============================================================
  0 2r: 2.00E-10 2x: 0.00E+00 2u: 0.00E+00 ir: 5.62E-12 iu: 0.00E+00 rsn:   0
  1 2r: 3.00E-13 2x: 9.17E+06 2u: 4.09E-01 ir: 1.66E-14 iu: 5.03E-03 rsn:   0
  2 2r: 2.70E-13 2x: 9.17E+06 2u: 1.96E-05 ir: 1.75E-14 iu: 4.20E-07 rsn: stol

 Step     66 Time=  9.22945E-01 Dt=  3.42466E-03 [y] conv_reason: 4
  newton =   2 [     160] linear =   694 [     56108] cuts =  0 [   7]
  --> SNES Linear/Non-Linear Iterations = 694 / 2
  --> SNES Residual: 0.269599E-12 0.404803E-16 0.174646E-13
  --> max change: dpmx=   5.0259E-03

== RICHARDS FLOW ===============================================================
  0 2r: 1.94E-10 2x: 0.00E+00 2u: 0.00E+00 ir: 5.44E-12 iu: 0.00E+00 rsn:   0
  1 2r: 2.78E-13 2x: 9.17E+06 2u: 7.67E-01 ir: 1.56E-14 iu: 9.43E-03 rsn:   0
  2 2r: 2.67E-13 2x: 9.17E+06 2u: 1.01E-05 ir: 1.62E-14 iu: 2.38E-07 rsn: stol

 Step     67 Time=  9.29795E-01 Dt=  6.84932E-03 [y] conv_reason: 4
  newton =   2 [     162] linear =   641 [     56749] cuts =  0 [   7]
  --> SNES Linear/Non-Linear Iterations = 641 / 2
  --> SNES Residual: 0.267142E-12 0.401114E-16 0.162454E-13
  --> max change: dpmx=   9.4270E-03

== RICHARDS FLOW ===============================================================
  0 2r: 1.82E-10 2x: 0.00E+00 2u: 0.00E+00 ir: 5.10E-12 iu: 0.00E+00 rsn:   0
  1 2r: 2.84E-13 2x: 9.17E+06 2u: 1.89E-01 ir: 1.73E-14 iu: 2.32E-03 rsn:   0
  2 2r: 2.77E-13 2x: 9.17E+06 2u: 9.49E-06 ir: 1.70E-14 iu: 2.12E-07 rsn: stol

 Step     68 Time=  9.31507E-01 Dt=  1.71233E-03 [y] conv_reason: 4
  newton =   2 [     164] linear =   607 [     57356] cuts =  0 [   7]
  --> SNES Linear/Non-Linear Iterations = 607 / 2
  --> SNES Residual: 0.276770E-12 0.415571E-16 0.170207E-13
  --> max change: dpmx=   2.3183E-03

 --> appending to hdf5 output file: 2D_flow-steady-state.h5
      0.01 Seconds to write HDF5 file.

== RICHARDS FLOW ===============================================================
  0 2r: 1.79E-10 2x: 0.00E+00 2u: 0.00E+00 ir: 5.02E-12 iu: 0.00E+00 rsn:   0
  1 2r: 2.89E-13 2x: 9.17E+06 2u: 1.33E+00 ir: 1.75E-14 iu: 1.64E-02 rsn:   0
  2 2r: 2.77E-13 2x: 9.17E+06 2u: 1.14E-05 ir: 1.76E-14 iu: 2.12E-07 rsn: stol

 Step     69 Time=  9.45205E-01 Dt=  1.36986E-02 [y] conv_reason: 4
  newton =   2 [     166] linear =   626 [     57982] cuts =  0 [   7]
  --> SNES Linear/Non-Linear Iterations = 626 / 2
  --> SNES Residual: 0.276820E-12 0.415645E-16 0.176313E-13
  --> max change: dpmx=   1.6376E-02

== RICHARDS FLOW ===============================================================
  0 2r: 1.58E-10 2x: 0.00E+00 2u: 0.00E+00 ir: 4.43E-12 iu: 0.00E+00 rsn:   0
  1 2r: 2.95E-13 2x: 9.17E+06 2u: 1.18E+00 ir: 1.66E-14 iu: 1.45E-02 rsn:   0
 -> Cut time step: snes= -3 icut= 1 [8] t= 9.45205E-01 dt= 6.84932E-03 [y]
Newton solver reason: SNES_DIVERGED_LINEAR_SOLVE
Linear solver reason: KSP_DIVERGED_BREAKDOWN
  0 2r: 1.58E-10 2x: 0.00E+00 2u: 0.00E+00 ir: 4.43E-12 iu: 0.00E+00 rsn:   0
  1 2r: 2.85E-13 2x: 9.17E+06 2u: 6.25E-01 ir: 1.68E-14 iu: 7.68E-03 rsn:   0
  2 2r: 2.77E-13 2x: 9.17E+06 2u: 4.55E-06 ir: 1.56E-14 iu: 1.05E-07 rsn: stol

 Step     70 Time=  9.52055E-01 Dt=  6.84932E-03 [y] conv_reason: 4
  newton =   3 [     169] linear =  1556 [     59538] cuts =  1 [   8]
  --> SNES Linear/Non-Linear Iterations = 658 / 2
  --> SNES Residual: 0.277136E-12 0.416120E-16 0.155525E-13
  --> max change: dpmx=   7.6791E-03

== RICHARDS FLOW ===============================================================
  0 2r: 1.48E-10 2x: 0.00E+00 2u: 0.00E+00 ir: 4.16E-12 iu: 0.00E+00 rsn:   0
  1 2r: 2.87E-13 2x: 9.17E+06 2u: 5.86E-01 ir: 1.72E-14 iu: 7.20E-03 rsn:   0
  2 2r: 2.73E-13 2x: 9.17E+06 2u: 9.81E-06 ir: 1.59E-14 iu: 2.29E-07 rsn: stol

 Step     71 Time=  9.58904E-01 Dt=  6.84932E-03 [y] conv_reason: 4
  newton =   2 [     171] linear =   762 [     60300] cuts =  0 [   8]
  --> SNES Linear/Non-Linear Iterations = 762 / 2
  --> SNES Residual: 0.273496E-12 0.410655E-16 0.159402E-13
  --> max change: dpmx=   7.2018E-03

 --> appending to hdf5 output file: 2D_flow-steady-state.h5
      0.01 Seconds to write HDF5 file.

== RICHARDS FLOW ===============================================================
  0 2r: 1.39E-10 2x: 0.00E+00 2u: 0.00E+00 ir: 3.90E-12 iu: 0.00E+00 rsn:   0
  1 2r: 2.78E-13 2x: 9.17E+06 2u: 5.50E-01 ir: 1.71E-14 iu: 6.75E-03 rsn:   0
  2 2r: 2.73E-13 2x: 9.17E+06 2u: 3.36E-06 ir: 1.51E-14 iu: 7.83E-08 rsn: stol

 Step     72 Time=  9.65753E-01 Dt=  6.84932E-03 [y] conv_reason: 4
  newton =   2 [     173] linear =   674 [     60974] cuts =  0 [   8]
  --> SNES Linear/Non-Linear Iterations = 674 / 2
  --> SNES Residual: 0.272951E-12 0.409837E-16 0.151242E-13
  --> max change: dpmx=   6.7542E-03

== RICHARDS FLOW ===============================================================
  0 2r: 1.30E-10 2x: 0.00E+00 2u: 0.00E+00 ir: 3.66E-12 iu: 0.00E+00 rsn:   0
  1 2r: 2.76E-13 2x: 9.17E+06 2u: 5.15E-01 ir: 1.71E-14 iu: 6.33E-03 rsn:   0
  2 2r: 2.75E-13 2x: 9.17E+06 2u: 5.13E-06 ir: 1.53E-14 iu: 1.26E-07 rsn: stol

 Step     73 Time=  9.72603E-01 Dt=  6.84932E-03 [y] conv_reason: 4
  newton =   2 [     175] linear =   634 [     61608] cuts =  0 [   8]
  --> SNES Linear/Non-Linear Iterations = 634 / 2
  --> SNES Residual: 0.274651E-12 0.412389E-16 0.153108E-13
  --> max change: dpmx=   6.3344E-03

== RICHARDS FLOW ===============================================================
  0 2r: 1.22E-10 2x: 0.00E+00 2u: 0.00E+00 ir: 3.43E-12 iu: 0.00E+00 rsn:   0
  1 2r: 2.81E-13 2x: 9.17E+06 2u: 4.83E-01 ir: 1.55E-14 iu: 5.94E-03 rsn:   0
 -> Cut time step: snes= -3 icut= 1 [9] t= 9.72603E-01 dt= 3.42466E-03 [y]
Newton solver reason: SNES_DIVERGED_LINEAR_SOLVE
Linear solver reason: KSP_DIVERGED_BREAKDOWN
  0 2r: 1.22E-10 2x: 0.00E+00 2u: 0.00E+00 ir: 3.43E-12 iu: 0.00E+00 rsn:   0
  1 2r: 2.90E-13 2x: 9.17E+06 2u: 2.49E-01 ir: 1.67E-14 iu: 3.07E-03 rsn:   0
  2 2r: 2.77E-13 2x: 9.17E+06 2u: 1.07E-05 ir: 1.61E-14 iu: 2.34E-07 rsn: stol

 Step     74 Time=  9.76027E-01 Dt=  3.42466E-03 [y] conv_reason: 4
  newton =   3 [     178] linear =  1429 [     63037] cuts =  1 [   9]
  --> SNES Linear/Non-Linear Iterations = 733 / 2
  --> SNES Residual: 0.277156E-12 0.416151E-16 0.161407E-13
  --> max change: dpmx=   3.0656E-03

== RICHARDS FLOW ===============================================================
  0 2r: 1.18E-10 2x: 0.00E+00 2u: 0.00E+00 ir: 3.32E-12 iu: 0.00E+00 rsn:   0
  1 2r: 2.82E-13 2x: 9.17E+06 2u: 2.41E-01 ir: 1.78E-14 iu: 2.97E-03 rsn:   0
 -> Cut time step: snes= -3 icut= 1 [10] t= 9.76027E-01 dt= 1.71233E-03 [y]
Newton solver reason: SNES_DIVERGED_LINEAR_SOLVE
Linear solver reason: KSP_DIVERGED_BREAKDOWN
  0 2r: 1.18E-10 2x: 0.00E+00 2u: 0.00E+00 ir: 3.32E-12 iu: 0.00E+00 rsn:   0
  1 2r: 2.83E-13 2x: 9.17E+06 2u: 1.23E-01 ir: 2.42E-14 iu: 1.51E-03 rsn:   0
  2 2r: 2.77E-13 2x: 9.17E+06 2u: 1.22E-06 ir: 1.68E-14 iu: 3.31E-08 rsn: stol

 Step     75 Time=  9.77740E-01 Dt=  1.71233E-03 [y] conv_reason: 4
  newton =   3 [     181] linear =  1515 [     64552] cuts =  1 [  10]
  --> SNES Linear/Non-Linear Iterations = 724 / 2
  --> SNES Residual: 0.276829E-12 0.415660E-16 0.168205E-13
  --> max change: dpmx=   1.5078E-03

== RICHARDS FLOW ===============================================================
  0 2r: 1.16E-10 2x: 0.00E+00 2u: 0.00E+00 ir: 3.27E-12 iu: 0.00E+00 rsn:   0
  1 2r: 2.82E-13 2x: 9.17E+06 2u: 1.21E-01 ir: 1.73E-14 iu: 1.48E-03 rsn:   0
  2 2r: 2.77E-13 2x: 9.17E+06 2u: 8.90E-06 ir: 1.51E-14 iu: 1.77E-07 rsn: stol

 Step     76 Time=  9.79452E-01 Dt=  1.71233E-03 [y] conv_reason: 4
  newton =   2 [     183] linear =   580 [     65132] cuts =  0 [  10]
  --> SNES Linear/Non-Linear Iterations = 580 / 2
  --> SNES Residual: 0.276706E-12 0.415475E-16 0.151238E-13
  --> max change: dpmx=   1.4832E-03

== RICHARDS FLOW ===============================================================
  0 2r: 1.14E-10 2x: 0.00E+00 2u: 0.00E+00 ir: 3.21E-12 iu: 0.00E+00 rsn:   0
  1 2r: 2.84E-13 2x: 9.17E+06 2u: 1.19E-01 ir: 2.04E-14 iu: 1.46E-03 rsn:   0
  2 2r: 2.80E-13 2x: 9.17E+06 2u: 1.70E-06 ir: 1.72E-14 iu: 3.64E-08 rsn: stol

 Step     77 Time=  9.81164E-01 Dt=  1.71233E-03 [y] conv_reason: 4
  newton =   2 [     185] linear =   640 [     65772] cuts =  0 [  10]
  --> SNES Linear/Non-Linear Iterations = 640 / 2
  --> SNES Residual: 0.279521E-12 0.419701E-16 0.172032E-13
  --> max change: dpmx=   1.4591E-03

== RICHARDS FLOW ===============================================================
  0 2r: 1.12E-10 2x: 0.00E+00 2u: 0.00E+00 ir: 3.16E-12 iu: 0.00E+00 rsn:   0
  1 2r: 2.93E-13 2x: 9.17E+06 2u: 1.17E-01 ir: 1.63E-14 iu: 1.44E-03 rsn:   0
  2 2r: 2.75E-13 2x: 9.17E+06 2u: 3.68E-06 ir: 1.55E-14 iu: 6.09E-08 rsn: stol

 Step     78 Time=  9.82877E-01 Dt=  1.71233E-03 [y] conv_reason: 4
  newton =   2 [     187] linear =   698 [     66470] cuts =  0 [  10]
  --> SNES Linear/Non-Linear Iterations = 698 / 2
  --> SNES Residual: 0.274871E-12 0.412720E-16 0.155023E-13
  --> max change: dpmx=   1.4353E-03

== RICHARDS FLOW ===============================================================
  0 2r: 1.11E-10 2x: 0.00E+00 2u: 0.00E+00 ir: 3.11E-12 iu: 0.00E+00 rsn:   0
  1 2r: 2.85E-13 2x: 9.17E+06 2u: 1.15E-01 ir: 1.80E-14 iu: 1.41E-03 rsn:   0
  2 2r: 2.76E-13 2x: 9.17E+06 2u: 8.15E-06 ir: 1.77E-14 iu: 1.69E-07 rsn: stol

 Step     79 Time=  9.84589E-01 Dt=  1.71233E-03 [y] conv_reason: 4
  newton =   2 [     189] linear =   584 [     67054] cuts =  0 [  10]
  --> SNES Linear/Non-Linear Iterations = 584 / 2
  --> SNES Residual: 0.276288E-12 0.414848E-16 0.176589E-13
  --> max change: dpmx=   1.4119E-03

== RICHARDS FLOW ===============================================================
  0 2r: 1.09E-10 2x: 0.00E+00 2u: 0.00E+00 ir: 3.06E-12 iu: 0.00E+00 rsn:   0
  1 2r: 2.83E-13 2x: 9.17E+06 2u: 1.13E-01 ir: 1.61E-14 iu: 1.39E-03 rsn:   0
  2 2r: 2.79E-13 2x: 9.17E+06 2u: 6.32E-06 ir: 1.72E-14 iu: 1.42E-07 rsn: stol

 Step     80 Time=  9.86301E-01 Dt=  1.71233E-03 [y] conv_reason: 4
  newton =   2 [     191] linear =   651 [     67705] cuts =  0 [  10]
  --> SNES Linear/Non-Linear Iterations = 651 / 2
  --> SNES Residual: 0.278530E-12 0.418213E-16 0.172479E-13
  --> max change: dpmx=   1.3889E-03

 --> appending to hdf5 output file: 2D_flow-steady-state.h5
      0.01 Seconds to write HDF5 file.

== RICHARDS FLOW ===============================================================
  0 2r: 1.07E-10 2x: 0.00E+00 2u: 0.00E+00 ir: 3.01E-12 iu: 0.00E+00 rsn:   0
  1 2r: 2.80E-13 2x: 9.17E+06 2u: 1.11E-01 ir: 1.74E-14 iu: 1.37E-03 rsn:   0
  2 2r: 2.73E-13 2x: 9.17E+06 2u: 9.34E-06 ir: 1.67E-14 iu: 1.79E-07 rsn: stol

 Step     81 Time=  9.88014E-01 Dt=  1.71233E-03 [y] conv_reason: 4
  newton =   2 [     193] linear =   671 [     68376] cuts =  0 [  10]
  --> SNES Linear/Non-Linear Iterations = 671 / 2
  --> SNES Residual: 0.272881E-12 0.409732E-16 0.167450E-13
  --> max change: dpmx=   1.3663E-03

== RICHARDS FLOW ===============================================================
  0 2r: 1.05E-10 2x: 0.00E+00 2u: 0.00E+00 ir: 2.96E-12 iu: 0.00E+00 rsn:   0
  1 2r: 2.85E-13 2x: 9.17E+06 2u: 2.15E-01 ir: 1.77E-14 iu: 2.64E-03 rsn:   0
  2 2r: 2.76E-13 2x: 9.17E+06 2u: 6.00E-06 ir: 1.62E-14 iu: 1.27E-07 rsn: stol

 Step     82 Time=  9.91438E-01 Dt=  3.42466E-03 [y] conv_reason: 4
  newton =   2 [     195] linear =   642 [     69018] cuts =  0 [  10]
  --> SNES Linear/Non-Linear Iterations = 642 / 2
  --> SNES Residual: 0.275699E-12 0.413963E-16 0.161631E-13
  --> max change: dpmx=   2.6449E-03

== RICHARDS FLOW ===============================================================
  0 2r: 1.02E-10 2x: 0.00E+00 2u: 0.00E+00 ir: 2.86E-12 iu: 0.00E+00 rsn:   0
  1 2r: 2.87E-13 2x: 9.17E+06 2u: 4.04E-01 ir: 1.68E-14 iu: 4.96E-03 rsn:   0
 -> Cut time step: snes= -3 icut= 1 [11] t= 9.91438E-01 dt= 3.42466E-03 [y]
Newton solver reason: SNES_DIVERGED_LINEAR_SOLVE
Linear solver reason: KSP_DIVERGED_BREAKDOWN
  0 2r: 1.02E-10 2x: 0.00E+00 2u: 0.00E+00 ir: 2.86E-12 iu: 0.00E+00 rsn:   0
  1 2r: 2.74E-13 2x: 9.17E+06 2u: 2.08E-01 ir: 1.59E-14 iu: 2.56E-03 rsn:   0
  2 2r: 2.74E-13 2x: 9.17E+06 2u: 7.08E-06 ir: 1.59E-14 iu: 1.72E-07 rsn: stol

 Step     83 Time=  9.94863E-01 Dt=  3.42466E-03 [y] conv_reason: 4
  newton =   3 [     198] linear =  1395 [     70413] cuts =  1 [  11]
  --> SNES Linear/Non-Linear Iterations = 742 / 2
  --> SNES Residual: 0.273559E-12 0.410749E-16 0.159415E-13
  --> max change: dpmx=   2.5600E-03

== RICHARDS FLOW ===============================================================
  0 2r: 9.86E-11 2x: 0.00E+00 2u: 0.00E+00 ir: 2.77E-12 iu: 0.00E+00 rsn:   0
  1 2r: 2.78E-13 2x: 9.17E+06 2u: 2.02E-01 ir: 1.55E-14 iu: 2.48E-03 rsn:   0
  2 2r: 2.79E-13 2x: 9.17E+06 2u: 8.01E-06 ir: 1.71E-14 iu: 1.82E-07 rsn: stol

 Step     84 Time=  9.98288E-01 Dt=  3.42466E-03 [y] conv_reason: 4
  newton =   2 [     200] linear =   629 [     71042] cuts =  0 [  11]
  --> SNES Linear/Non-Linear Iterations = 629 / 2
  --> SNES Residual: 0.279424E-12 0.419556E-16 0.170656E-13
  --> max change: dpmx=   2.4779E-03

== RICHARDS FLOW ===============================================================
  0 2r: 9.54E-11 2x: 0.00E+00 2u: 0.00E+00 ir: 2.68E-12 iu: 0.00E+00 rsn:   0
  1 2r: 2.84E-13 2x: 9.17E+06 2u: 9.92E-02 ir: 1.74E-14 iu: 1.22E-03 rsn:   0
  2 2r: 2.77E-13 2x: 9.17E+06 2u: 5.36E-06 ir: 1.68E-14 iu: 1.26E-07 rsn: stol

 Step     85 Time=  1.00000E+00 Dt=  1.71233E-03 [y] conv_reason: 4
  newton =   2 [     202] linear =   793 [     71835] cuts =  0 [  11]
  --> SNES Linear/Non-Linear Iterations = 793 / 2
  --> SNES Residual: 0.276833E-12 0.415665E-16 0.167595E-13
  --> max change: dpmx=   1.2188E-03

 --> appending to hdf5 output file: 2D_flow-steady-state.h5
      0.01 Seconds to write HDF5 file.

== RICHARDS FLOW ===============================================================
  0 2r: 9.39E-11 2x: 0.00E+00 2u: 0.00E+00 ir: 2.64E-12 iu: 0.00E+00 rsn:   0
  1 2r: 2.72E-13 2x: 9.17E+06 2u: 1.92E-01 ir: 1.72E-14 iu: 2.36E-03 rsn:   0
  2 2r: 2.83E-13 2x: 9.17E+06 2u: 2.11E-06 ir: 1.67E-14 iu: 4.14E-08 rsn: stol

 Step     86 Time=  1.00342E+00 Dt=  3.42466E-03 [y] conv_reason: 4
  newton =   2 [     204] linear =   771 [     72606] cuts =  0 [  11]
  --> SNES Linear/Non-Linear Iterations = 771 / 2
  --> SNES Residual: 0.282806E-12 0.424634E-16 0.166881E-13
  --> max change: dpmx=   2.3594E-03

== RICHARDS FLOW ===============================================================
  0 2r: 9.09E-11 2x: 0.00E+00 2u: 0.00E+00 ir: 2.55E-12 iu: 0.00E+00 rsn:   0
  1 2r: 2.75E-13 2x: 9.17E+06 2u: 1.86E-01 ir: 1.56E-14 iu: 2.28E-03 rsn:   0
  2 2r: 2.78E-13 2x: 9.17E+06 2u: 5.61E-06 ir: 1.55E-14 iu: 1.29E-07 rsn: stol

 Step     87 Time=  1.00685E+00 Dt=  3.42466E-03 [y] conv_reason: 4
  newton =   2 [     206] linear =   624 [     73230] cuts =  0 [  11]
  --> SNES Linear/Non-Linear Iterations = 624 / 2
  --> SNES Residual: 0.278444E-12 0.418085E-16 0.154808E-13
  --> max change: dpmx=   2.2837E-03

== RICHARDS FLOW ===============================================================
  0 2r: 8.79E-11 2x: 0.00E+00 2u: 0.00E+00 ir: 2.47E-12 iu: 0.00E+00 rsn:   0
  1 2r: 2.78E-13 2x: 9.17E+06 2u: 1.80E-01 ir: 1.58E-14 iu: 2.21E-03 rsn:   0
 -> Cut time step: snes= -3 icut= 1 [12] t= 1.00685E+00 dt= 1.71233E-03 [y]
Newton solver reason: SNES_DIVERGED_LINEAR_SOLVE
Linear solver reason: KSP_DIVERGED_BREAKDOWN
  0 2r: 8.79E-11 2x: 0.00E+00 2u: 0.00E+00 ir: 2.47E-12 iu: 0.00E+00 rsn:   0
  1 2r: 2.82E-13 2x: 9.17E+06 2u: 9.14E-02 ir: 1.76E-14 iu: 1.12E-03 rsn: stol

 Step     88 Time=  1.00856E+00 Dt=  1.71233E-03 [y] conv_reason: 4
  newton =   2 [     208] linear =  1119 [     74349] cuts =  1 [  12]
  --> SNES Linear/Non-Linear Iterations = 277 / 1
  --> SNES Residual: 0.281930E-12 0.423319E-16 0.176136E-13
  --> max change: dpmx=   1.1233E-03

== RICHARDS FLOW ===============================================================
  0 2r: 8.65E-11 2x: 0.00E+00 2u: 0.00E+00 ir: 2.43E-12 iu: 0.00E+00 rsn:   0
  1 2r: 2.81E-13 2x: 9.17E+06 2u: 8.99E-02 ir: 1.77E-14 iu: 1.10E-03 rsn: stol

 Step     89 Time=  1.01027E+00 Dt=  1.71233E-03 [y] conv_reason: 4
  newton =   1 [     209] linear =   297 [     74646] cuts =  0 [  12]
  --> SNES Linear/Non-Linear Iterations = 297 / 1
  --> SNES Residual: 0.281065E-12 0.422020E-16 0.177220E-13
  --> max change: dpmx=   1.1049E-03

== RICHARDS FLOW ===============================================================
  0 2r: 8.51E-11 2x: 0.00E+00 2u: 0.00E+00 ir: 2.39E-12 iu: 0.00E+00 rsn:   0
  1 2r: 2.83E-13 2x: 9.17E+06 2u: 8.84E-02 ir: 1.68E-14 iu: 1.09E-03 rsn: stol

 Step     90 Time=  1.01199E+00 Dt=  1.71233E-03 [y] conv_reason: 4
  newton =   1 [     210] linear =   269 [     74915] cuts =  0 [  12]
  --> SNES Linear/Non-Linear Iterations = 269 / 1
  --> SNES Residual: 0.283189E-12 0.425209E-16 0.168296E-13
  --> max change: dpmx=   1.0869E-03

== RICHARDS FLOW ===============================================================
  0 2r: 8.37E-11 2x: 0.00E+00 2u: 0.00E+00 ir: 2.35E-12 iu: 0.00E+00 rsn:   0
  1 2r: 2.72E-13 2x: 9.17E+06 2u: 8.70E-02 ir: 1.66E-14 iu: 1.07E-03 rsn: stol

 Step     91 Time=  1.01370E+00 Dt=  1.71233E-03 [y] conv_reason: 4
  newton =   1 [     211] linear =   298 [     75213] cuts =  0 [  12]
  --> SNES Linear/Non-Linear Iterations = 298 / 1
  --> SNES Residual: 0.272220E-12 0.408739E-16 0.166070E-13
  --> max change: dpmx=   1.0691E-03

== RICHARDS FLOW ===============================================================
  0 2r: 8.24E-11 2x: 0.00E+00 2u: 0.00E+00 ir: 2.32E-12 iu: 0.00E+00 rsn:   0
  1 2r: 2.74E-13 2x: 9.17E+06 2u: 8.56E-02 ir: 1.59E-14 iu: 1.05E-03 rsn: stol

 Step     92 Time=  1.01541E+00 Dt=  1.71233E-03 [y] conv_reason: 4
  newton =   1 [     212] linear =   293 [     75506] cuts =  0 [  12]
  --> SNES Linear/Non-Linear Iterations = 293 / 1
  --> SNES Residual: 0.274400E-12 0.412012E-16 0.158561E-13
  --> max change: dpmx=   1.0519E-03

== RICHARDS FLOW ===============================================================
  0 2r: 8.10E-11 2x: 0.00E+00 2u: 0.00E+00 ir: 2.28E-12 iu: 0.00E+00 rsn:   0
  1 2r: 2.72E-13 2x: 9.17E+06 2u: 8.42E-02 ir: 1.59E-14 iu: 1.03E-03 rsn: stol

 Step     93 Time=  1.01712E+00 Dt=  1.71233E-03 [y] conv_reason: 4
  newton =   1 [     213] linear =   293 [     75799] cuts =  0 [  12]
  --> SNES Linear/Non-Linear Iterations = 293 / 1
  --> SNES Residual: 0.272000E-12 0.408408E-16 0.159252E-13
  --> max change: dpmx=   1.0346E-03

== RICHARDS FLOW ===============================================================
  0 2r: 7.97E-11 2x: 0.00E+00 2u: 0.00E+00 ir: 2.24E-12 iu: 0.00E+00 rsn:   0
  1 2r: 2.83E-13 2x: 9.17E+06 2u: 1.63E-01 ir: 1.73E-14 iu: 2.00E-03 rsn:   0
  2 2r: 2.71E-13 2x: 9.17E+06 2u: 5.47E-06 ir: 1.73E-14 iu: 1.20E-07 rsn: stol

 Step     94 Time=  1.02055E+00 Dt=  3.42466E-03 [y] conv_reason: 4
  newton =   2 [     215] linear =   614 [     76413] cuts =  0 [  12]
  --> SNES Linear/Non-Linear Iterations = 614 / 2
  --> SNES Residual: 0.270589E-12 0.406290E-16 0.173043E-13
  --> max change: dpmx=   2.0029E-03

== RICHARDS FLOW ===============================================================
  0 2r: 7.71E-11 2x: 0.00E+00 2u: 0.00E+00 ir: 2.17E-12 iu: 0.00E+00 rsn:   0
  1 2r: 2.77E-13 2x: 9.17E+06 2u: 3.06E-01 ir: 1.63E-14 iu: 3.76E-03 rsn:   0
  2 2r: 2.78E-13 2x: 9.17E+06 2u: 5.05E-06 ir: 1.68E-14 iu: 1.27E-07 rsn: stol

 Step     95 Time=  1.02740E+00 Dt=  6.84932E-03 [y] conv_reason: 4
  newton =   2 [     217] linear =   891 [     77304] cuts =  0 [  12]
  --> SNES Linear/Non-Linear Iterations = 891 / 2
  --> SNES Residual: 0.277555E-12 0.416750E-16 0.168028E-13
  --> max change: dpmx=   3.7568E-03

== RICHARDS FLOW ===============================================================
  0 2r: 7.23E-11 2x: 0.00E+00 2u: 0.00E+00 ir: 2.03E-12 iu: 0.00E+00 rsn:   0
  1 2r: 2.77E-13 2x: 9.17E+06 2u: 5.40E-01 ir: 1.60E-14 iu: 6.63E-03 rsn:   0
  2 2r: 2.76E-13 2x: 9.17E+06 2u: 2.87E-06 ir: 1.66E-14 iu: 7.16E-08 rsn: stol

 Step     96 Time=  1.04110E+00 Dt=  1.36986E-02 [y] conv_reason: 4
  newton =   2 [     219] linear =   657 [     77961] cuts =  0 [  12]
  --> SNES Linear/Non-Linear Iterations = 657 / 2
  --> SNES Residual: 0.276392E-12 0.415002E-16 0.166352E-13
  --> max change: dpmx=   6.6343E-03

== RICHARDS FLOW ===============================================================
  0 2r: 6.39E-11 2x: 0.00E+00 2u: 0.00E+00 ir: 1.80E-12 iu: 0.00E+00 rsn:   0
  1 2r: 2.83E-13 2x: 9.17E+06 2u: 8.53E-01 ir: 1.51E-14 iu: 1.05E-02 rsn:   0
  2 2r: 2.82E-13 2x: 9.17E+06 2u: 4.08E-07 ir: 1.69E-14 iu: 7.44E-09 rsn: stol

 Step     97 Time=  1.06849E+00 Dt=  2.73973E-02 [y] conv_reason: 4
  newton =   2 [     221] linear =   628 [     78589] cuts =  0 [  12]
  --> SNES Linear/Non-Linear Iterations = 628 / 2
  --> SNES Residual: 0.282313E-12 0.423893E-16 0.168593E-13
  --> max change: dpmx=   1.0488E-02

== RICHARDS FLOW ===============================================================
  0 2r: 5.05E-11 2x: 0.00E+00 2u: 0.00E+00 ir: 1.42E-12 iu: 0.00E+00 rsn:   0
  1 2r: 2.72E-13 2x: 9.17E+06 2u: 1.12E+00 ir: 1.59E-14 iu: 1.37E-02 rsn:   0
  2 2r: 2.81E-13 2x: 9.17E+06 2u: 4.35E-06 ir: 1.73E-14 iu: 8.79E-08 rsn: stol

 Step     98 Time=  1.12329E+00 Dt=  5.47945E-02 [y] conv_reason: 4
  newton =   2 [     223] linear =   631 [     79220] cuts =  0 [  12]
  --> SNES Linear/Non-Linear Iterations = 631 / 2
  --> SNES Residual: 0.281233E-12 0.422271E-16 0.173346E-13
  --> max change: dpmx=   1.3708E-02

== RICHARDS FLOW ===============================================================
  0 2r: 3.30E-11 2x: 0.00E+00 2u: 0.00E+00 ir: 9.28E-13 iu: 0.00E+00 rsn:   0
  1 2r: 2.73E-13 2x: 9.17E+06 2u: 1.08E+00 ir: 1.65E-14 iu: 1.33E-02 rsn:   0
 -> Cut time step: snes= -3 icut= 1 [13] t= 1.12329E+00 dt= 5.47945E-02 [y]
Newton solver reason: SNES_DIVERGED_LINEAR_SOLVE
Linear solver reason: KSP_DIVERGED_BREAKDOWN
  0 2r: 3.30E-11 2x: 0.00E+00 2u: 0.00E+00 ir: 9.28E-13 iu: 0.00E+00 rsn:   0
  1 2r: 2.76E-13 2x: 9.17E+06 2u: 7.29E-01 ir: 1.64E-14 iu: 8.96E-03 rsn:   0
  2 2r: 2.80E-13 2x: 9.17E+06 2u: 2.31E-06 ir: 1.63E-14 iu: 5.64E-08 rsn: stol

 Step     99 Time=  1.17808E+00 Dt=  5.47945E-02 [y] conv_reason: 4
  newton =   3 [     226] linear =  1803 [     81023] cuts =  1 [  13]
  --> SNES Linear/Non-Linear Iterations = 1076 / 2
  --> SNES Residual: 0.280237E-12 0.420777E-16 0.163212E-13
  --> max change: dpmx=   8.9586E-03

== RICHARDS FLOW ===============================================================
  0 2r: 2.16E-11 2x: 0.00E+00 2u: 0.00E+00 ir: 6.07E-13 iu: 0.00E+00 rsn:   0
  1 2r: 2.82E-13 2x: 9.17E+06 2u: 4.76E-01 ir: 1.61E-14 iu: 5.85E-03 rsn:   0
 -> Cut time step: snes= -3 icut= 1 [14] t= 1.17808E+00 dt= 2.73973E-02 [y]
Newton solver reason: SNES_DIVERGED_LINEAR_SOLVE
Linear solver reason: KSP_DIVERGED_BREAKDOWN
  0 2r: 2.16E-11 2x: 0.00E+00 2u: 0.00E+00 ir: 6.07E-13 iu: 0.00E+00 rsn:   0
  1 2r: 2.84E-13 2x: 9.17E+06 2u: 2.88E-01 ir: 1.68E-14 iu: 3.54E-03 rsn:   0
  2 2r: 2.79E-13 2x: 9.17E+06 2u: 7.54E-07 ir: 1.68E-14 iu: 1.50E-08 rsn: stol

 Step    100 Time=  1.20548E+00 Dt=  2.73973E-02 [y] conv_reason: 4
  newton =   3 [     229] linear =  1480 [     82503] cuts =  1 [  14]
  --> SNES Linear/Non-Linear Iterations = 661 / 2
  --> SNES Residual: 0.279200E-12 0.419219E-16 0.167601E-13
  --> max change: dpmx=   3.5407E-03

== RICHARDS FLOW ===============================================================
  0 2r: 1.70E-11 2x: 0.00E+00 2u: 0.00E+00 ir: 4.80E-13 iu: 0.00E+00 rsn:   0
  1 2r: 2.68E-13 2x: 9.17E+06 2u: 2.28E-01 ir: 1.78E-14 iu: 2.80E-03 rsn:   0
  2 2r: 2.80E-13 2x: 9.17E+06 2u: 1.72E-06 ir: 1.78E-14 iu: 3.80E-08 rsn: stol

 Step    101 Time=  1.23288E+00 Dt=  2.73973E-02 [y] conv_reason: 4
  newton =   2 [     231] linear =   737 [     83240] cuts =  0 [  14]
  --> SNES Linear/Non-Linear Iterations = 737 / 2
  --> SNES Residual: 0.279796E-12 0.420114E-16 0.177925E-13
  --> max change: dpmx=   2.7987E-03

== RICHARDS FLOW ===============================================================
  0 2r: 1.35E-11 2x: 0.00E+00 2u: 0.00E+00 ir: 3.80E-13 iu: 0.00E+00 rsn:   0
  1 2r: 2.75E-13 2x: 9.17E+06 2u: 1.80E-01 ir: 1.70E-14 iu: 2.21E-03 rsn:   0
  2 2r: 2.85E-13 2x: 9.17E+06 2u: 1.19E-06 ir: 1.77E-14 iu: 2.37E-08 rsn: stol

 Step    102 Time=  1.26027E+00 Dt=  2.73973E-02 [y] conv_reason: 4
  newton =   2 [     233] linear =   644 [     83884] cuts =  0 [  14]
  --> SNES Linear/Non-Linear Iterations = 644 / 2
  --> SNES Residual: 0.284569E-12 0.427281E-16 0.177443E-13
  --> max change: dpmx=   2.2123E-03

== RICHARDS FLOW ===============================================================
  0 2r: 1.07E-11 2x: 0.00E+00 2u: 0.00E+00 ir: 3.00E-13 iu: 0.00E+00 rsn:   0
  1 2r: 2.85E-13 2x: 9.17E+06 2u: 7.95E-02 ir: 1.69E-14 iu: 9.77E-04 rsn: stol

 Step    103 Time=  1.27397E+00 Dt=  1.36986E-02 [y] conv_reason: 4
  newton =   1 [     234] linear =   399 [     84283] cuts =  0 [  14]
  --> SNES Linear/Non-Linear Iterations = 399 / 1
  --> SNES Residual: 0.284769E-12 0.427581E-16 0.168855E-13
  --> max change: dpmx=   9.7669E-04

 --> appending to hdf5 output file: 2D_flow-steady-state.h5
      0.01 Seconds to write HDF5 file.

== RICHARDS FLOW ===============================================================
  0 2r: 9.41E-12 2x: 0.00E+00 2u: 0.00E+00 ir: 2.65E-13 iu: 0.00E+00 rsn:   0
  1 2r: 2.79E-13 2x: 9.17E+06 2u: 1.26E-01 ir: 1.67E-14 iu: 1.54E-03 rsn:   0
 -> Cut time step: snes= -3 icut= 1 [15] t= 1.27397E+00 dt= 1.36986E-02 [y]
Newton solver reason: SNES_DIVERGED_LINEAR_SOLVE
Linear solver reason: KSP_DIVERGED_BREAKDOWN
  0 2r: 9.41E-12 2x: 0.00E+00 2u: 0.00E+00 ir: 2.65E-13 iu: 0.00E+00 rsn:   0
  1 2r: 2.76E-13 2x: 9.17E+06 2u: 7.02E-02 ir: 1.57E-14 iu: 8.62E-04 rsn: stol

 Step    104 Time=  1.28767E+00 Dt=  1.36986E-02 [y] conv_reason: 4
  newton =   2 [     236] linear =  1311 [     85594] cuts =  1 [  15]
  --> SNES Linear/Non-Linear Iterations = 310 / 1
  --> SNES Residual: 0.276464E-12 0.415111E-16 0.157154E-13
  --> max change: dpmx=   8.6236E-04

== RICHARDS FLOW ===============================================================
  0 2r: 8.31E-12 2x: 0.00E+00 2u: 0.00E+00 ir: 2.34E-13 iu: 0.00E+00 rsn:   0
[...]
  --> max change: dpmx=   0.0000E+00

== RICHARDS FLOW ===============================================================
  0 2r: 2.74E-13 2x: 0.00E+00 2u: 0.00E+00 ir: 1.65E-14 iu: 0.00E+00 rsn:   0
  1 2r: 2.74E-13 2x: 9.17E+06 2u: 4.20E-10 ir: 1.65E-14 iu: 1.45E-11 rsn: stol

 Step    580 Time=  4.64000E+02 Dt=  1.00000E+00 [y] conv_reason: 4
  newton =   1 [     712] linear =    62 [    120553] cuts =  0 [  15]
  --> SNES Linear/Non-Linear Iterations = 62 / 1
  --> SNES Residual: 0.273533E-12 0.410711E-16 0.164671E-13
  --> max change: dpmx=   0.0000E+00

== RICHARDS FLOW ===============================================================
  0 2r: 2.74E-13 2x: 0.00E+00 2u: 0.00E+00 ir: 1.65E-14 iu: 0.00E+00 rsn:   0
  1 2r: 2.74E-13 2x: 9.17E+06 2u: 4.20E-10 ir: 1.65E-14 iu: 1.45E-11 rsn: stol

 Step    581 Time=  4.65000E+02 Dt=  1.00000E+00 [y] conv_reason: 4
  newton =   1 [     713] linear =    62 [    120615] cuts =  0 [  15]
  --> SNES Linear/Non-Linear Iterations = 62 / 1
  --> SNES Residual: 0.273533E-12 0.410711E-16 0.164671E-13
  --> max change: dpmx=   0.0000E+00

== RICHARDS FLOW ===============================================================
  0 2r: 2.74E-13 2x: 0.00E+00 2u: 0.00E+00 ir: 1.65E-14 iu: 0.00E+00 rsn:   0
  1 2r: 2.74E-13 2x: 9.17E+06 2u: 4.20E-10 ir: 1.65E-14 iu: 1.45E-11 rsn: stol

 Step    582 Time=  4.66000E+02 Dt=  1.00000E+00 [y] conv_reason: 4
  newton =   1 [     714] linear =    62 [    120677] cuts =  0 [  15]
  --> SNES Linear/Non-Linear Iterations = 62 / 1
  --> SNES Residual: 0.273533E-12 0.410711E-16 0.164671E-13
  --> max change: dpmx=   0.0000E+00

== RICHARDS FLOW ===============================================================
  0 2r: 2.74E-13 2x: 0.00E+00 2u: 0.00E+00 ir: 1.65E-14 iu: 0.00E+00 rsn:   0
  1 2r: 2.74E-13 2x: 9.17E+06 2u: 4.20E-10 ir: 1.65E-14 iu: 1.45E-11 rsn: stol

 Step    583 Time=  4.67000E+02 Dt=  1.00000E+00 [y] conv_reason: 4
  newton =   1 [     715] linear =    62 [    120739] cuts =  0 [  15]
  --> SNES Linear/Non-Linear Iterations = 62 / 1
  --> SNES Residual: 0.273533E-12 0.410711E-16 0.164671E-13
  --> max change: dpmx=   0.0000E+00

== RICHARDS FLOW ===============================================================
  0 2r: 2.74E-13 2x: 0.00E+00 2u: 0.00E+00 ir: 1.65E-14 iu: 0.00E+00 rsn:   0
  1 2r: 2.74E-13 2x: 9.17E+06 2u: 4.20E-10 ir: 1.65E-14 iu: 1.45E-11 rsn: stol

 Step    584 Time=  4.68000E+02 Dt=  1.00000E+00 [y] conv_reason: 4
  newton =   1 [     716] linear =    62 [    120801] cuts =  0 [  15]
  --> SNES Linear/Non-Linear Iterations = 62 / 1
  --> SNES Residual: 0.273533E-12 0.410711E-16 0.164671E-13
  --> max change: dpmx=   0.0000E+00

== RICHARDS FLOW ===============================================================
  0 2r: 2.74E-13 2x: 0.00E+00 2u: 0.00E+00 ir: 1.65E-14 iu: 0.00E+00 rsn:   0
  1 2r: 2.74E-13 2x: 9.17E+06 2u: 4.20E-10 ir: 1.65E-14 iu: 1.45E-11 rsn: stol

 Step    585 Time=  4.69000E+02 Dt=  1.00000E+00 [y] conv_reason: 4
  newton =   1 [     717] linear =    62 [    120863] cuts =  0 [  15]
  --> SNES Linear/Non-Linear Iterations = 62 / 1
  --> SNES Residual: 0.273533E-12 0.410711E-16 0.164671E-13
  --> max change: dpmx=   0.0000E+00

== RICHARDS FLOW ===============================================================
  0 2r: 2.74E-13 2x: 0.00E+00 2u: 0.00E+00 ir: 1.65E-14 iu: 0.00E+00 rsn:   0
  1 2r: 2.74E-13 2x: 9.17E+06 2u: 4.20E-10 ir: 1.65E-14 iu: 1.45E-11 rsn: stol

 Step    586 Time=  4.70000E+02 Dt=  1.00000E+00 [y] conv_reason: 4
  newton =   1 [     718] linear =    62 [    120925] cuts =  0 [  15]
  --> SNES Linear/Non-Linear Iterations = 62 / 1
  --> SNES Residual: 0.273533E-12 0.410711E-16 0.164671E-13
  --> max change: dpmx=   0.0000E+00

== RICHARDS FLOW ===============================================================
  0 2r: 2.74E-13 2x: 0.00E+00 2u: 0.00E+00 ir: 1.65E-14 iu: 0.00E+00 rsn:   0
  1 2r: 2.74E-13 2x: 9.17E+06 2u: 4.20E-10 ir: 1.65E-14 iu: 1.45E-11 rsn: stol

 Step    587 Time=  4.71000E+02 Dt=  1.00000E+00 [y] conv_reason: 4
  newton =   1 [     719] linear =    62 [    120987] cuts =  0 [  15]
  --> SNES Linear/Non-Linear Iterations = 62 / 1
  --> SNES Residual: 0.273533E-12 0.410711E-16 0.164671E-13
  --> max change: dpmx=   0.0000E+00

== RICHARDS FLOW ===============================================================
  0 2r: 2.74E-13 2x: 0.00E+00 2u: 0.00E+00 ir: 1.65E-14 iu: 0.00E+00 rsn:   0
  1 2r: 2.74E-13 2x: 9.17E+06 2u: 4.20E-10 ir: 1.65E-14 iu: 1.45E-11 rsn: stol

 Step    588 Time=  4.72000E+02 Dt=  1.00000E+00 [y] conv_reason: 4
  newton =   1 [     720] linear =    62 [    121049] cuts =  0 [  15]
  --> SNES Linear/Non-Linear Iterations = 62 / 1
  --> SNES Residual: 0.273533E-12 0.410711E-16 0.164671E-13
  --> max change: dpmx=   0.0000E+00

== RICHARDS FLOW ===============================================================
  0 2r: 2.74E-13 2x: 0.00E+00 2u: 0.00E+00 ir: 1.65E-14 iu: 0.00E+00 rsn:   0
  1 2r: 2.74E-13 2x: 9.17E+06 2u: 4.20E-10 ir: 1.65E-14 iu: 1.45E-11 rsn: stol

 Step    589 Time=  4.73000E+02 Dt=  1.00000E+00 [y] conv_reason: 4
  newton =   1 [     721] linear =    62 [    121111] cuts =  0 [  15]
  --> SNES Linear/Non-Linear Iterations = 62 / 1
  --> SNES Residual: 0.273533E-12 0.410711E-16 0.164671E-13
  --> max change: dpmx=   0.0000E+00

== RICHARDS FLOW ===============================================================
  0 2r: 2.74E-13 2x: 0.00E+00 2u: 0.00E+00 ir: 1.65E-14 iu: 0.00E+00 rsn:   0
  1 2r: 2.74E-13 2x: 9.17E+06 2u: 4.20E-10 ir: 1.65E-14 iu: 1.45E-11 rsn: stol

 Step    590 Time=  4.74000E+02 Dt=  1.00000E+00 [y] conv_reason: 4
  newton =   1 [     722] linear =    62 [    121173] cuts =  0 [  15]
  --> SNES Linear/Non-Linear Iterations = 62 / 1
  --> SNES Residual: 0.273533E-12 0.410711E-16 0.164671E-13
  --> max change: dpmx=   0.0000E+00

== RICHARDS FLOW ===============================================================
  0 2r: 2.74E-13 2x: 0.00E+00 2u: 0.00E+00 ir: 1.65E-14 iu: 0.00E+00 rsn:   0
  1 2r: 2.74E-13 2x: 9.17E+06 2u: 4.20E-10 ir: 1.65E-14 iu: 1.45E-11 rsn: stol

 Step    591 Time=  4.75000E+02 Dt=  1.00000E+00 [y] conv_reason: 4
  newton =   1 [     723] linear =    62 [    121235] cuts =  0 [  15]
  --> SNES Linear/Non-Linear Iterations = 62 / 1
  --> SNES Residual: 0.273533E-12 0.410711E-16 0.164671E-13
  --> max change: dpmx=   0.0000E+00

== RICHARDS FLOW ===============================================================
  0 2r: 2.74E-13 2x: 0.00E+00 2u: 0.00E+00 ir: 1.65E-14 iu: 0.00E+00 rsn:   0
  1 2r: 2.74E-13 2x: 9.17E+06 2u: 4.20E-10 ir: 1.65E-14 iu: 1.45E-11 rsn: stol

 Step    592 Time=  4.76000E+02 Dt=  1.00000E+00 [y] conv_reason: 4
  newton =   1 [     724] linear =    62 [    121297] cuts =  0 [  15]
  --> SNES Linear/Non-Linear Iterations = 62 / 1
  --> SNES Residual: 0.273533E-12 0.410711E-16 0.164671E-13
  --> max change: dpmx=   0.0000E+00

== RICHARDS FLOW ===============================================================
  0 2r: 2.74E-13 2x: 0.00E+00 2u: 0.00E+00 ir: 1.65E-14 iu: 0.00E+00 rsn:   0
  1 2r: 2.74E-13 2x: 9.17E+06 2u: 4.20E-10 ir: 1.65E-14 iu: 1.45E-11 rsn: stol

 Step    593 Time=  4.77000E+02 Dt=  1.00000E+00 [y] conv_reason: 4
  newton =   1 [     725] linear =    62 [    121359] cuts =  0 [  15]
  --> SNES Linear/Non-Linear Iterations = 62 / 1
  --> SNES Residual: 0.273533E-12 0.410711E-16 0.164671E-13
  --> max change: dpmx=   0.0000E+00

== RICHARDS FLOW ===============================================================
  0 2r: 2.74E-13 2x: 0.00E+00 2u: 0.00E+00 ir: 1.65E-14 iu: 0.00E+00 rsn:   0
  1 2r: 2.74E-13 2x: 9.17E+06 2u: 4.20E-10 ir: 1.65E-14 iu: 1.45E-11 rsn: stol

 Step    594 Time=  4.78000E+02 Dt=  1.00000E+00 [y] conv_reason: 4
  newton =   1 [     726] linear =    62 [    121421] cuts =  0 [  15]
  --> SNES Linear/Non-Linear Iterations = 62 / 1
  --> SNES Residual: 0.273533E-12 0.410711E-16 0.164671E-13
  --> max change: dpmx=   0.0000E+00

== RICHARDS FLOW ===============================================================
  0 2r: 2.74E-13 2x: 0.00E+00 2u: 0.00E+00 ir: 1.65E-14 iu: 0.00E+00 rsn:   0
  1 2r: 2.74E-13 2x: 9.17E+06 2u: 4.20E-10 ir: 1.65E-14 iu: 1.45E-11 rsn: stol

 Step    595 Time=  4.79000E+02 Dt=  1.00000E+00 [y] conv_reason: 4
  newton =   1 [     727] linear =    62 [    121483] cuts =  0 [  15]
  --> SNES Linear/Non-Linear Iterations = 62 / 1
  --> SNES Residual: 0.273533E-12 0.410711E-16 0.164671E-13
  --> max change: dpmx=   0.0000E+00

== RICHARDS FLOW ===============================================================
  0 2r: 2.74E-13 2x: 0.00E+00 2u: 0.00E+00 ir: 1.65E-14 iu: 0.00E+00 rsn:   0
  1 2r: 2.74E-13 2x: 9.17E+06 2u: 4.20E-10 ir: 1.65E-14 iu: 1.45E-11 rsn: stol

 Step    596 Time=  4.80000E+02 Dt=  1.00000E+00 [y] conv_reason: 4
  newton =   1 [     728] linear =    62 [    121545] cuts =  0 [  15]
  --> SNES Linear/Non-Linear Iterations = 62 / 1
  --> SNES Residual: 0.273533E-12 0.410711E-16 0.164671E-13
  --> max change: dpmx=   0.0000E+00

== RICHARDS FLOW ===============================================================
  0 2r: 2.74E-13 2x: 0.00E+00 2u: 0.00E+00 ir: 1.65E-14 iu: 0.00E+00 rsn:   0
  1 2r: 2.74E-13 2x: 9.17E+06 2u: 4.20E-10 ir: 1.65E-14 iu: 1.45E-11 rsn: stol

 Step    597 Time=  4.81000E+02 Dt=  1.00000E+00 [y] conv_reason: 4
  newton =   1 [     729] linear =    62 [    121607] cuts =  0 [  15]
  --> SNES Linear/Non-Linear Iterations = 62 / 1
  --> SNES Residual: 0.273533E-12 0.410711E-16 0.164671E-13
  --> max change: dpmx=   0.0000E+00

== RICHARDS FLOW ===============================================================
  0 2r: 2.74E-13 2x: 0.00E+00 2u: 0.00E+00 ir: 1.65E-14 iu: 0.00E+00 rsn:   0
  1 2r: 2.74E-13 2x: 9.17E+06 2u: 4.20E-10 ir: 1.65E-14 iu: 1.45E-11 rsn: stol

 Step    598 Time=  4.82000E+02 Dt=  1.00000E+00 [y] conv_reason: 4
  newton =   1 [     730] linear =    62 [    121669] cuts =  0 [  15]
  --> SNES Linear/Non-Linear Iterations = 62 / 1
  --> SNES Residual: 0.273533E-12 0.410711E-16 0.164671E-13
  --> max change: dpmx=   0.0000E+00

== RICHARDS FLOW ===============================================================
  0 2r: 2.74E-13 2x: 0.00E+00 2u: 0.00E+00 ir: 1.65E-14 iu: 0.00E+00 rsn:   0
  1 2r: 2.74E-13 2x: 9.17E+06 2u: 4.20E-10 ir: 1.65E-14 iu: 1.45E-11 rsn: stol

 Step    599 Time=  4.83000E+02 Dt=  1.00000E+00 [y] conv_reason: 4
  newton =   1 [     731] linear =    62 [    121731] cuts =  0 [  15]
  --> SNES Linear/Non-Linear Iterations = 62 / 1
  --> SNES Residual: 0.273533E-12 0.410711E-16 0.164671E-13
  --> max change: dpmx=   0.0000E+00

== RICHARDS FLOW ===============================================================
  0 2r: 2.74E-13 2x: 0.00E+00 2u: 0.00E+00 ir: 1.65E-14 iu: 0.00E+00 rsn:   0
  1 2r: 2.74E-13 2x: 9.17E+06 2u: 4.20E-10 ir: 1.65E-14 iu: 1.45E-11 rsn: stol

 Step    600 Time=  4.84000E+02 Dt=  1.00000E+00 [y] conv_reason: 4
  newton =   1 [     732] linear =    62 [    121793] cuts =  0 [  15]
  --> SNES Linear/Non-Linear Iterations = 62 / 1
  --> SNES Residual: 0.273533E-12 0.410711E-16 0.164671E-13
  --> max change: dpmx=   0.0000E+00

== RICHARDS FLOW ===============================================================
  0 2r: 2.74E-13 2x: 0.00E+00 2u: 0.00E+00 ir: 1.65E-14 iu: 0.00E+00 rsn:   0
  1 2r: 2.74E-13 2x: 9.17E+06 2u: 4.20E-10 ir: 1.65E-14 iu: 1.45E-11 rsn: stol

 Step    601 Time=  4.85000E+02 Dt=  1.00000E+00 [y] conv_reason: 4
  newton =   1 [     733] linear =    62 [    121855] cuts =  0 [  15]
  --> SNES Linear/Non-Linear Iterations = 62 / 1
  --> SNES Residual: 0.273533E-12 0.410711E-16 0.164671E-13
  --> max change: dpmx=   0.0000E+00

== RICHARDS FLOW ===============================================================
  0 2r: 2.74E-13 2x: 0.00E+00 2u: 0.00E+00 ir: 1.65E-14 iu: 0.00E+00 rsn:   0
  1 2r: 2.74E-13 2x: 9.17E+06 2u: 4.20E-10 ir: 1.65E-14 iu: 1.45E-11 rsn: stol

 Step    602 Time=  4.86000E+02 Dt=  1.00000E+00 [y] conv_reason: 4
  newton =   1 [     734] linear =    62 [    121917] cuts =  0 [  15]
  --> SNES Linear/Non-Linear Iterations = 62 / 1
  --> SNES Residual: 0.273533E-12 0.410711E-16 0.164671E-13
  --> max change: dpmx=   0.0000E+00

== RICHARDS FLOW ===============================================================
  0 2r: 2.74E-13 2x: 0.00E+00 2u: 0.00E+00 ir: 1.65E-14 iu: 0.00E+00 rsn:   0
  1 2r: 2.74E-13 2x: 9.17E+06 2u: 4.20E-10 ir: 1.65E-14 iu: 1.45E-11 rsn: stol

 Step    603 Time=  4.87000E+02 Dt=  1.00000E+00 [y] conv_reason: 4
  newton =   1 [     735] linear =    62 [    121979] cuts =  0 [  15]
  --> SNES Linear/Non-Linear Iterations = 62 / 1
  --> SNES Residual: 0.273533E-12 0.410711E-16 0.164671E-13
  --> max change: dpmx=   0.0000E+00

== RICHARDS FLOW ===============================================================
  0 2r: 2.74E-13 2x: 0.00E+00 2u: 0.00E+00 ir: 1.65E-14 iu: 0.00E+00 rsn:   0
  1 2r: 2.74E-13 2x: 9.17E+06 2u: 4.20E-10 ir: 1.65E-14 iu: 1.45E-11 rsn: stol

 Step    604 Time=  4.88000E+02 Dt=  1.00000E+00 [y] conv_reason: 4
  newton =   1 [     736] linear =    62 [    122041] cuts =  0 [  15]
  --> SNES Linear/Non-Linear Iterations = 62 / 1
  --> SNES Residual: 0.273533E-12 0.410711E-16 0.164671E-13
  --> max change: dpmx=   0.0000E+00

== RICHARDS FLOW ===============================================================
  0 2r: 2.74E-13 2x: 0.00E+00 2u: 0.00E+00 ir: 1.65E-14 iu: 0.00E+00 rsn:   0
  1 2r: 2.74E-13 2x: 9.17E+06 2u: 4.20E-10 ir: 1.65E-14 iu: 1.45E-11 rsn: stol

 Step    605 Time=  4.89000E+02 Dt=  1.00000E+00 [y] conv_reason: 4
  newton =   1 [     737] linear =    62 [    122103] cuts =  0 [  15]
  --> SNES Linear/Non-Linear Iterations = 62 / 1
  --> SNES Residual: 0.273533E-12 0.410711E-16 0.164671E-13
  --> max change: dpmx=   0.0000E+00

== RICHARDS FLOW ===============================================================
  0 2r: 2.74E-13 2x: 0.00E+00 2u: 0.00E+00 ir: 1.65E-14 iu: 0.00E+00 rsn:   0
  1 2r: 2.74E-13 2x: 9.17E+06 2u: 4.20E-10 ir: 1.65E-14 iu: 1.45E-11 rsn: stol

 Step    606 Time=  4.90000E+02 Dt=  1.00000E+00 [y] conv_reason: 4
  newton =   1 [     738] linear =    62 [    122165] cuts =  0 [  15]
  --> SNES Linear/Non-Linear Iterations = 62 / 1
  --> SNES Residual: 0.273533E-12 0.410711E-16 0.164671E-13
  --> max change: dpmx=   0.0000E+00

== RICHARDS FLOW ===============================================================
  0 2r: 2.74E-13 2x: 0.00E+00 2u: 0.00E+00 ir: 1.65E-14 iu: 0.00E+00 rsn:   0
  1 2r: 2.74E-13 2x: 9.17E+06 2u: 4.20E-10 ir: 1.65E-14 iu: 1.45E-11 rsn: stol

 Step    607 Time=  4.91000E+02 Dt=  1.00000E+00 [y] conv_reason: 4
  newton =   1 [     739] linear =    62 [    122227] cuts =  0 [  15]
  --> SNES Linear/Non-Linear Iterations = 62 / 1
  --> SNES Residual: 0.273533E-12 0.410711E-16 0.164671E-13
  --> max change: dpmx=   0.0000E+00

== RICHARDS FLOW ===============================================================
  0 2r: 2.74E-13 2x: 0.00E+00 2u: 0.00E+00 ir: 1.65E-14 iu: 0.00E+00 rsn:   0
  1 2r: 2.74E-13 2x: 9.17E+06 2u: 4.20E-10 ir: 1.65E-14 iu: 1.45E-11 rsn: stol

 Step    608 Time=  4.92000E+02 Dt=  1.00000E+00 [y] conv_reason: 4
  newton =   1 [     740] linear =    62 [    122289] cuts =  0 [  15]
  --> SNES Linear/Non-Linear Iterations = 62 / 1
  --> SNES Residual: 0.273533E-12 0.410711E-16 0.164671E-13
  --> max change: dpmx=   0.0000E+00

== RICHARDS FLOW ===============================================================
  0 2r: 2.74E-13 2x: 0.00E+00 2u: 0.00E+00 ir: 1.65E-14 iu: 0.00E+00 rsn:   0
  1 2r: 2.74E-13 2x: 9.17E+06 2u: 4.20E-10 ir: 1.65E-14 iu: 1.45E-11 rsn: stol

 Step    609 Time=  4.93000E+02 Dt=  1.00000E+00 [y] conv_reason: 4
  newton =   1 [     741] linear =    62 [    122351] cuts =  0 [  15]
  --> SNES Linear/Non-Linear Iterations = 62 / 1
  --> SNES Residual: 0.273533E-12 0.410711E-16 0.164671E-13
  --> max change: dpmx=   0.0000E+00

== RICHARDS FLOW ===============================================================
  0 2r: 2.74E-13 2x: 0.00E+00 2u: 0.00E+00 ir: 1.65E-14 iu: 0.00E+00 rsn:   0
  1 2r: 2.74E-13 2x: 9.17E+06 2u: 4.20E-10 ir: 1.65E-14 iu: 1.45E-11 rsn: stol

 Step    610 Time=  4.94000E+02 Dt=  1.00000E+00 [y] conv_reason: 4
  newton =   1 [     742] linear =    62 [    122413] cuts =  0 [  15]
  --> SNES Linear/Non-Linear Iterations = 62 / 1
  --> SNES Residual: 0.273533E-12 0.410711E-16 0.164671E-13
  --> max change: dpmx=   0.0000E+00

== RICHARDS FLOW ===============================================================
  0 2r: 2.74E-13 2x: 0.00E+00 2u: 0.00E+00 ir: 1.65E-14 iu: 0.00E+00 rsn:   0
  1 2r: 2.74E-13 2x: 9.17E+06 2u: 4.20E-10 ir: 1.65E-14 iu: 1.45E-11 rsn: stol

 Step    611 Time=  4.95000E+02 Dt=  1.00000E+00 [y] conv_reason: 4
  newton =   1 [     743] linear =    62 [    122475] cuts =  0 [  15]
  --> SNES Linear/Non-Linear Iterations = 62 / 1
  --> SNES Residual: 0.273533E-12 0.410711E-16 0.164671E-13
  --> max change: dpmx=   0.0000E+00

== RICHARDS FLOW ===============================================================
  0 2r: 2.74E-13 2x: 0.00E+00 2u: 0.00E+00 ir: 1.65E-14 iu: 0.00E+00 rsn:   0
  1 2r: 2.74E-13 2x: 9.17E+06 2u: 4.20E-10 ir: 1.65E-14 iu: 1.45E-11 rsn: stol

 Step    612 Time=  4.96000E+02 Dt=  1.00000E+00 [y] conv_reason: 4
  newton =   1 [     744] linear =    62 [    122537] cuts =  0 [  15]
  --> SNES Linear/Non-Linear Iterations = 62 / 1
  --> SNES Residual: 0.273533E-12 0.410711E-16 0.164671E-13
  --> max change: dpmx=   0.0000E+00

== RICHARDS FLOW ===============================================================
  0 2r: 2.74E-13 2x: 0.00E+00 2u: 0.00E+00 ir: 1.65E-14 iu: 0.00E+00 rsn:   0
  1 2r: 2.74E-13 2x: 9.17E+06 2u: 4.20E-10 ir: 1.65E-14 iu: 1.45E-11 rsn: stol

 Step    613 Time=  4.97000E+02 Dt=  1.00000E+00 [y] conv_reason: 4
  newton =   1 [     745] linear =    62 [    122599] cuts =  0 [  15]
  --> SNES Linear/Non-Linear Iterations = 62 / 1
  --> SNES Residual: 0.273533E-12 0.410711E-16 0.164671E-13
  --> max change: dpmx=   0.0000E+00

== RICHARDS FLOW ===============================================================
  0 2r: 2.74E-13 2x: 0.00E+00 2u: 0.00E+00 ir: 1.65E-14 iu: 0.00E+00 rsn:   0
  1 2r: 2.74E-13 2x: 9.17E+06 2u: 4.20E-10 ir: 1.65E-14 iu: 1.45E-11 rsn: stol

 Step    614 Time=  4.98000E+02 Dt=  1.00000E+00 [y] conv_reason: 4
  newton =   1 [     746] linear =    62 [    122661] cuts =  0 [  15]
  --> SNES Linear/Non-Linear Iterations = 62 / 1
  --> SNES Residual: 0.273533E-12 0.410711E-16 0.164671E-13
  --> max change: dpmx=   0.0000E+00

== RICHARDS FLOW ===============================================================
  0 2r: 2.74E-13 2x: 0.00E+00 2u: 0.00E+00 ir: 1.65E-14 iu: 0.00E+00 rsn:   0
  1 2r: 2.74E-13 2x: 9.17E+06 2u: 4.20E-10 ir: 1.65E-14 iu: 1.45E-11 rsn: stol

 Step    615 Time=  4.99000E+02 Dt=  1.00000E+00 [y] conv_reason: 4
  newton =   1 [     747] linear =    62 [    122723] cuts =  0 [  15]
  --> SNES Linear/Non-Linear Iterations = 62 / 1
  --> SNES Residual: 0.273533E-12 0.410711E-16 0.164671E-13
  --> max change: dpmx=   0.0000E+00

== RICHARDS FLOW ===============================================================
  0 2r: 2.74E-13 2x: 0.00E+00 2u: 0.00E+00 ir: 1.65E-14 iu: 0.00E+00 rsn:   0
  1 2r: 2.74E-13 2x: 9.17E+06 2u: 4.20E-10 ir: 1.65E-14 iu: 1.45E-11 rsn: stol

 Step    616 Time=  5.00000E+02 Dt=  1.00000E+00 [y] conv_reason: 4
  newton =   1 [     748] linear =    62 [    122785] cuts =  0 [  15]
  --> SNES Linear/Non-Linear Iterations = 62 / 1
  --> SNES Residual: 0.273533E-12 0.410711E-16 0.164671E-13
  --> max change: dpmx=   0.0000E+00

 --> appending to hdf5 output file: 2D_flow-steady-state.h5
      0.01 Seconds to write HDF5 file.
 --> Dump checkpoint file: 2D_flow-steady-state-restart.h5
      Seconds to write to checkpoint file:       0.13

PMCSubsurfaceFlow
 Total Time: 1.0526E+01 seconds

 FLOW TS SNES steps = 616  newton = 748  linear = 122785  cuts = 15
 FLOW TS SNES Wasted Linear Iterations = 11394
 FLOW TS SNES Wasted Newton Iterations = 17
 FLOW TS SNES time = 10.3 seconds

 Wall Clock Time:  1.2387E+01 [sec]   2.0644E-01 [min]   3.4407E-03 [hr]
