
=================
  PFLOTRAN v6.0
=================

"grid_structured_type" set to default value.
pflotran card:: NUMERICAL_METHODS
pflotran card:: NUMERICAL_METHODS
pflotran card:: CHEMISTRY
pflotran card:: GRID
pflotran card:: FLUID_PROPERTY
"FLUID_PROPERTY,diffusion_coefficient units" set to default value.
pflotran card:: MATERIAL_PROPERTY
  Name :: soil1
pflotran card:: CHARACTERISTIC_CURVES
  Name :: default
 WARNING: Mualem-van Genuchten relative permeability function is being used without SMOOTH option.
pflotran card:: OUTPUT
pflotran card:: TIME
pflotran card:: REGION
all
pflotran card:: REGION
west
pflotran card:: REGION
east
pflotran card:: REGION
middle
pflotran card:: OBSERVATION
pflotran card:: FLOW_CONDITION
initial
pflotran card:: FLOW_CONDITION
inlet
pflotran card:: FLOW_CONDITION
outlet
pflotran card:: TRANSPORT_CONDITION
initial
pflotran card:: TRANSPORT_CONDITION
inlet
pflotran card:: CONSTRAINT
initial
Constraint Species: Tracer
pflotran card:: CONSTRAINT
inlet
Constraint Species: Tracer
pflotran card:: INITIAL_CONDITION
"Initial Condition name" set to default value.
pflotran card:: BOUNDARY_CONDITION
pflotran card:: BOUNDARY_CONDITION
pflotran card:: STRATA
pflotran card:: END_SUBSURFACE
--------------------------------------------------------------------------------

     1  Primary Species

              Tracer              

     0  Secondary Complex Species



     0  Active Gas Species



     0  Passive Gas Species



     0  Reference Minerals



     0  Kinetic Mineral Reactions



     0  Ion Exchange Reactions

     0  Ion Exchange Cations
--------------------------------------------------------------------------------

Extent of Gridded Domain
 X: 0.000000E+00 - 4.000000E+01
 Y: 0.000000E+00 - 1.000000E+00
 Z: 0.000000E+00 - 1.000000E+00

Size of Gridded Domain
 Number of grid cells: 100

Number of active grid cells: 100
Number of inactive grid cells: 0

  Setting up TRAN Realization
  Finished setting up TRAN Realization

=+=+=+=+=+=+=+=+=+=+=+=+=+=+=+=+=+=+=+=+=+=+=+=+=+=+=+=+=+=+=+=+=+=+=+=+=+=+=+=+

  Initial Condition

--------------------------------------------------------------------------------
          Flow Condition:   initial
     Transport Condition:   initial
                  Region:   all
--------------------------------------------------------------------------------

  Flow Condition: initial
    Synchronize time with update: no
    Time units: yr
    Length units: m
      Datum:
        Dataset: Unnamed Ascii Dataset
          Type: dataset_ascii_type
          Transient: no
          Array Rank:  3

    Sub Condition: pressure
      Type: hydrostatic
      Gradient:
        Dataset: Unnamed Ascii Dataset
          Type: dataset_ascii_type
          Transient: no
          Array Rank:  3
      Data:
        Dataset: Unnamed Ascii Dataset
          Type: dataset_ascii_type
          Transient: no
          Array Rank:  1

--------------------------------------------------------------------------------

  Transport Condition: initial

  Constraint: initial

  species       molality
  Tracer        1.0028E-20


--------------------------------------------------------------------------------

=+=+=+=+=+=+=+=+=+=+=+=+=+=+=+=+=+=+=+=+=+=+=+=+=+=+=+=+=+=+=+=+=+=+=+=+=+=+=+=+

  Boundary Condition

--------------------------------------------------------------------------------
          Flow Condition:   inlet
     Transport Condition:   inlet
                  Region:   west
--------------------------------------------------------------------------------

  Flow Condition: inlet
    Synchronize time with update: no
    Time units: yr
    Length units: m
      Datum:
        Dataset: Unnamed Ascii Dataset
          Type: dataset_ascii_type
          Transient: no
          Array Rank:  3

    Sub Condition: pressure
      Type: hydrostatic
      Gradient:
      Data:
        Dataset: Unnamed Ascii Dataset
          Type: dataset_ascii_type
          Transient: no
          Array Rank:  1

--------------------------------------------------------------------------------

  Transport Condition: inlet

  Constraint: inlet

  species       molality
  Tracer        1.0028E+00


--------------------------------------------------------------------------------

=+=+=+=+=+=+=+=+=+=+=+=+=+=+=+=+=+=+=+=+=+=+=+=+=+=+=+=+=+=+=+=+=+=+=+=+=+=+=+=+

  Boundary Condition

--------------------------------------------------------------------------------
          Flow Condition:   outlet
     Transport Condition:   initial
                  Region:   east
--------------------------------------------------------------------------------

  Flow Condition: outlet
    Synchronize time with update: no
    Time units: yr
    Length units: m
      Datum:
        Dataset: Unnamed Ascii Dataset
          Type: dataset_ascii_type
          Transient: no
          Array Rank:  3

    Sub Condition: pressure
      Type: hydrostatic
      Gradient:
      Data:
        Dataset: Unnamed Ascii Dataset
          Type: dataset_ascii_type
          Transient: no
          Array Rank:  1

--------------------------------------------------------------------------------

  Transport Condition: initial

  Constraint: initial

  species       molality
  Tracer        1.0028E-20


--------------------------------------------------------------------------------
Default HDF5 method is used in Initialization
  Beginning setup of FLOW SNES
 number of dofs =   1, number of phases =   1
 mode = Richards: p
  Finished setting up FLOW SNES
mode = Reactive Transport
  Beginning setup of TRAN SNES
  Finished setting up TRAN SNES

 Requested processors and decomposition =     1, npx,y,z=   -1  -1  -1
 Actual decomposition: npx,y,z=    1   1   1


FLOW Time Stepper SNES
      maximum number of steps: 999999
constant time steps threshold: 5
       maximum number of cuts: 16
             reduction factor: 5.000000E-01
        maximum growth factor: 2.000000E+00
                 acceleration: on
       acceleration threshold: 5
       number of ramp entries: 5
                ramp entry #1: 2.0000
                ramp entry #2: 2.0000
                ramp entry #3: 2.0000
                ramp entry #4: 2.0000
                ramp entry #5: 2.0000
                ramp entry #6: 1.8000
                ramp entry #7: 1.6000
                ramp entry #8: 1.4000
                ramp entry #9: 1.2000
               ramp entry #10: 1.0000
               ramp entry #11: 1.0000
               ramp entry #12: 1.0000
               ramp entry #13: 1.0000

FLOW Newton Solver
                         atol: 1.000000E-50
                         rtol: 1.000000E-08
                         stol: 1.000000E-08
                         dtol: 1.000000E+04
                      maxnorm: 1.000000E+20
                    inftolres: -9.990000E+02
                    inftolupd: -9.990000E+02
                 inftolrelupd: -9.990000E+02
                 inftolsclres: -9.990000E+02
                     max iter: 50
                     min iter: 1
                         maxf: 10000
                  matrix type: baij
         precond. matrix type: baij
               inexact newton: off
            print convergence: on
   print detailed convergence: off
          check infinity norm: on

FLOW Linear Solver
                       solver: bcgs
               preconditioner: ilu
                         atol: 1.000000E-50
                         rtol: 1.000000E-05
                         dtol: 1.000000E+04
            maximum iteration: 10000

TRAN Time Stepper SNES
      maximum number of steps: 999999
constant time steps threshold: 5
       maximum number of cuts: 16
             reduction factor: 5.000000E-01
        maximum growth factor: 2.000000E+00
                 acceleration: on
       acceleration threshold: 5
       number of ramp entries: 5
                ramp entry #1: 2.0000
                ramp entry #2: 2.0000
                ramp entry #3: 2.0000
                ramp entry #4: 2.0000
                ramp entry #5: 2.0000
                ramp entry #6: 1.8000
                ramp entry #7: 1.6000
                ramp entry #8: 1.4000
                ramp entry #9: 1.2000
               ramp entry #10: 1.0000
               ramp entry #11: 1.0000
               ramp entry #12: 1.0000
               ramp entry #13: 1.0000

TRAN Newton Solver
                         atol: 1.000000E-50
                         rtol: 1.000000E-08
                         stol: 1.000000E-08
                         dtol: 1.000000E+04
                      maxnorm: 1.000000E+20
                    inftolres: -9.990000E+02
                    inftolupd: -9.990000E+02
                 inftolrelupd: -9.990000E+02
                 inftolsclres: -9.990000E+02
                     max iter: 50
                     min iter: 1
                         maxf: 10000
                  matrix type: baij
         precond. matrix type: baij
               inexact newton: off
            print convergence: on
   print detailed convergence: off
          check infinity norm: on

TRAN Linear Solver
                       solver: bcgs
               preconditioner: ilu
                         atol: 1.000000E-50
                         rtol: 1.000000E-05
                         dtol: 1.000000E+04
            maximum iteration: 10000


 Finished Initialization


== RICHARDS FLOW ===============================================================
  0 2r: 2.68E-06 2x: 0.00E+00 2u: 0.00E+00 ir: 2.68E-06 iu: 0.00E+00 rsn:   0
  1 2r: 2.72E-15 2x: 1.26E+06 2u: 1.80E+00 ir: 6.66E-16 iu: 4.26E-01 rsn: rtol

 Step      1 Time=  4.16667E-05 Dt=  4.16667E-05 [d] conv_reason: 3
  newton =   1 [       1] linear =     1 [         1] cuts =  0 [   0]
  --> SNES Linear/Non-Linear Iterations = 1 / 1
  --> SNES Residual: 0.271948E-14 0.271948E-16 0.666134E-15
  --> max change: dpmx=   4.2592E-01

== REACTIVE TRANSPORT ==========================================================
  0 2r: 4.74E-01 2x: 0.00E+00 2u: 0.00E+00 ir: 4.74E-01 iu: 0.00E+00 rsn:   0
  1 2r: 5.55E-17 2x: 1.67E-02 2u: 1.67E-02 ir: 5.55E-17 iu: 1.67E-02 rsn: rtol

 Step      1 Time=  4.16667E-05 Dt=  4.16667E-05 [d] conv_reason: 3
  newton =   1 [       1] linear =     1 [         1] cuts =  0 [   0]
  --> SNES Linear/Non-Linear Iterations = 1 / 1
  --> SNES Residual: 0.555112E-16 0.555112E-16 0.555112E-16
  --> max change:  dcmx=   1.6699E-02  dc/dt=   4.6387E-03 [mol/s]
 Maximum Pore Velocity:   7.5911E+00 [m/d]

== RICHARDS FLOW ===============================================================
  0 2r: 1.25E-09 2x: 0.00E+00 2u: 0.00E+00 ir: 2.95E-10 iu: 0.00E+00 rsn:   0
  1 2r: 1.64E-15 2x: 1.26E+06 2u: 2.08E-01 ir: 4.44E-16 iu: 2.97E-02 rsn:   0
  2 2r: 7.20E-16 2x: 1.26E+06 2u: 2.66E-08 ir: 1.11E-16 iu: 5.34E-09 rsn: stol

 Step      2 Time=  1.25000E-04 Dt=  8.33333E-05 [d] conv_reason: 4
  newton =   2 [       3] linear =     2 [         3] cuts =  0 [   0]
  --> SNES Linear/Non-Linear Iterations = 2 / 2
  --> SNES Residual: 0.719507E-15 0.719507E-17 0.111022E-15
  --> max change: dpmx=   2.9739E-02

== REACTIVE TRANSPORT ==========================================================
  0 2r: 4.63E-01 2x: 0.00E+00 2u: 0.00E+00 ir: 4.63E-01 iu: 0.00E+00 rsn:   0
  1 2r: 1.11E-16 2x: 4.85E-02 2u: 3.18E-02 ir: 1.11E-16 iu: 3.18E-02 rsn: rtol

 Step      2 Time=  1.25000E-04 Dt=  8.33333E-05 [d] conv_reason: 3
  newton =   1 [       2] linear =     1 [         2] cuts =  0 [   0]
  --> SNES Linear/Non-Linear Iterations = 1 / 1
  --> SNES Residual: 0.111036E-15 0.111036E-15 0.111022E-15
  --> max change:  dcmx=   3.1808E-02  dc/dt=   4.4178E-03 [mol/s]
 Maximum Pore Velocity:   7.5911E+00 [m/d]

== RICHARDS FLOW ===============================================================
  0 2r: 7.20E-11 2x: 0.00E+00 2u: 0.00E+00 ir: 1.03E-11 iu: 0.00E+00 rsn:   0
  1 2r: 8.20E-16 2x: 1.26E+06 2u: 2.15E-02 ir: 2.22E-16 iu: 3.03E-03 rsn:   0
  2 2r: 5.00E-16 2x: 1.26E+06 2u: 7.21E-09 ir: 1.11E-16 iu: 1.46E-09 rsn: stol

 Step      3 Time=  2.91667E-04 Dt=  1.66667E-04 [d] conv_reason: 4
  newton =   2 [       5] linear =     2 [         5] cuts =  0 [   0]
  --> SNES Linear/Non-Linear Iterations = 2 / 2
  --> SNES Residual: 0.499600E-15 0.499600E-17 0.111022E-15
  --> max change: dpmx=   3.0349E-03

== REACTIVE TRANSPORT ==========================================================
  0 2r: 4.41E-01 2x: 0.00E+00 2u: 0.00E+00 ir: 4.41E-01 iu: 0.00E+00 rsn:   0
  1 2r: 2.12E-22 2x: 1.06E-01 2u: 5.80E-02 ir: 2.12E-22 iu: 5.79E-02 rsn: rtol

 Step      3 Time=  2.91667E-04 Dt=  1.66667E-04 [d] conv_reason: 3
  newton =   1 [       3] linear =     1 [         3] cuts =  0 [   0]
  --> SNES Linear/Non-Linear Iterations = 1 / 1
  --> SNES Residual: 0.211863E-21 0.211863E-21 0.211758E-21
  --> max change:  dcmx=   5.7892E-02  dc/dt=   4.0203E-03 [mol/s]
 Maximum Pore Velocity:   7.5911E+00 [m/d]

== RICHARDS FLOW ===============================================================
  0 2r: 3.73E-12 2x: 0.00E+00 2u: 0.00E+00 ir: 5.26E-13 iu: 0.00E+00 rsn:   0
  1 2r: 6.09E-16 2x: 1.26E+06 2u: 1.18E-03 ir: 1.67E-16 iu: 1.67E-04 rsn: stol

 Step      4 Time=  6.25000E-04 Dt=  3.33333E-04 [d] conv_reason: 4
  newton =   1 [       6] linear =     1 [         6] cuts =  0 [   0]
  --> SNES Linear/Non-Linear Iterations = 1 / 1
  --> SNES Residual: 0.609360E-15 0.609360E-17 0.166533E-15
  --> max change: dpmx=   1.6671E-04

== REACTIVE TRANSPORT ==========================================================
  0 2r: 4.02E-01 2x: 0.00E+00 2u: 0.00E+00 ir: 4.01E-01 iu: 0.00E+00 rsn:   0
  1 2r: 2.08E-17 2x: 2.04E-01 2u: 9.78E-02 ir: 2.08E-17 iu: 9.70E-02 rsn: rtol

 Step      4 Time=  6.25000E-04 Dt=  3.33333E-04 [d] conv_reason: 3
  newton =   1 [       4] linear =     1 [         4] cuts =  0 [   0]
  --> SNES Linear/Non-Linear Iterations = 1 / 1
  --> SNES Residual: 0.208347E-16 0.208347E-16 0.208167E-16
  --> max change:  dcmx=   9.7019E-02  dc/dt=   3.3687E-03 [mol/s]
 Maximum Pore Velocity:   7.5911E+00 [m/d]

== RICHARDS FLOW ===============================================================
  0 2r: 1.02E-13 2x: 0.00E+00 2u: 0.00E+00 ir: 1.45E-14 iu: 0.00E+00 rsn:   0
  1 2r: 5.31E-16 2x: 1.26E+06 2u: 3.29E-05 ir: 1.25E-16 iu: 4.65E-06 rsn: stol

 Step      5 Time=  1.29167E-03 Dt=  6.66667E-04 [d] conv_reason: 4
  newton =   1 [       7] linear =     1 [         7] cuts =  0 [   0]
  --> SNES Linear/Non-Linear Iterations = 1 / 1
  --> SNES Residual: 0.530995E-15 0.530995E-17 0.124900E-15
  --> max change: dpmx=   4.6458E-06

== REACTIVE TRANSPORT ==========================================================
  0 2r: 3.39E-01 2x: 0.00E+00 2u: 0.00E+00 ir: 3.36E-01 iu: 0.00E+00 rsn:   0
  1 2r: 1.12E-16 2x: 3.49E-01 2u: 1.46E-01 ir: 1.11E-16 iu: 1.42E-01 rsn: rtol

 Step      5 Time=  1.29167E-03 Dt=  6.66667E-04 [d] conv_reason: 3
  newton =   1 [       5] linear =     1 [         5] cuts =  0 [   0]
  --> SNES Linear/Non-Linear Iterations = 1 / 1
  --> SNES Residual: 0.111900E-15 0.111900E-15 0.111022E-15
  --> max change:  dcmx=   1.4159E-01  dc/dt=   2.4582E-03 [mol/s]
 Maximum Pore Velocity:   7.5911E+00 [m/d]

== RICHARDS FLOW ===============================================================
  0 2r: 1.51E-15 2x: 0.00E+00 2u: 0.00E+00 ir: 3.05E-16 iu: 0.00E+00 rsn:   0
  1 2r: 4.11E-16 2x: 1.26E+06 2u: 4.61E-07 ir: 1.32E-16 iu: 6.52E-08 rsn: stol

 Step      6 Time=  2.62500E-03 Dt=  1.33333E-03 [d] conv_reason: 4
  newton =   1 [       8] linear =     1 [         8] cuts =  0 [   0]
  --> SNES Linear/Non-Linear Iterations = 1 / 1
  --> SNES Residual: 0.411331E-15 0.411331E-17 0.131839E-15
  --> max change: dpmx=   6.5163E-08

== REACTIVE TRANSPORT ==========================================================
  0 2r: 2.53E-01 2x: 0.00E+00 2u: 0.00E+00 ir: 2.45E-01 iu: 0.00E+00 rsn:   0
  1 2r: 1.43E-17 2x: 5.32E-01 2u: 1.89E-01 ir: 1.39E-17 iu: 1.68E-01 rsn: rtol

 Step      6 Time=  2.62500E-03 Dt=  1.33333E-03 [d] conv_reason: 3
  newton =   1 [       6] linear =     1 [         6] cuts =  0 [   0]
  --> SNES Linear/Non-Linear Iterations = 1 / 1
  --> SNES Residual: 0.143115E-16 0.143115E-16 0.138778E-16
  --> max change:  dcmx=   1.6847E-01  dc/dt=   1.4625E-03 [mol/s]
 Maximum Pore Velocity:   7.5911E+00 [m/d]

== RICHARDS FLOW ===============================================================
  0 2r: 4.13E-16 2x: 0.00E+00 2u: 0.00E+00 ir: 1.35E-16 iu: 0.00E+00 rsn:   0
  1 2r: 5.13E-16 2x: 1.26E+06 2u: 3.18E-09 ir: 1.49E-16 iu: 4.51E-10 rsn: stol

 Step      7 Time=  5.29167E-03 Dt=  2.66667E-03 [d] conv_reason: 4
  newton =   1 [       9] linear =     1 [         9] cuts =  0 [   0]
  --> SNES Linear/Non-Linear Iterations = 1 / 1
  --> SNES Residual: 0.513279E-15 0.513279E-17 0.149186E-15
  --> max change: dpmx=   4.5111E-10

== REACTIVE TRANSPORT ==========================================================
  0 2r: 1.63E-01 2x: 0.00E+00 2u: 0.00E+00 ir: 1.46E-01 iu: 0.00E+00 rsn:   0
  1 2r: 6.36E-17 2x: 7.30E-01 2u: 2.20E-01 ir: 5.55E-17 iu: 1.56E-01 rsn: rtol

 Step      7 Time=  5.29167E-03 Dt=  2.66667E-03 [d] conv_reason: 3
  newton =   1 [       7] linear =     1 [         7] cuts =  0 [   0]
  --> SNES Linear/Non-Linear Iterations = 1 / 1
  --> SNES Residual: 0.636467E-16 0.636467E-16 0.555112E-16
  --> max change:  dcmx=   1.5623E-01  dc/dt=   6.7807E-04 [mol/s]
 Maximum Pore Velocity:   7.5911E+00 [m/d]

== RICHARDS FLOW ===============================================================
  0 2r: 5.11E-16 2x: 0.00E+00 2u: 0.00E+00 ir: 1.49E-16 iu: 0.00E+00 rsn:   0
  1 2r: 3.67E-16 2x: 1.26E+06 2u: 1.10E-10 ir: 1.34E-16 iu: 2.34E-11 rsn: stol

 Step      8 Time=  1.06250E-02 Dt=  5.33333E-03 [d] conv_reason: 4
  newton =   1 [      10] linear =     1 [        10] cuts =  0 [   0]
  --> SNES Linear/Non-Linear Iterations = 1 / 1
  --> SNES Residual: 0.367463E-15 0.367463E-17 0.133574E-15
  --> max change: dpmx=   2.9104E-11

== REACTIVE TRANSPORT ==========================================================
  0 2r: 9.51E-02 2x: 0.00E+00 2u: 0.00E+00 ir: 6.76E-02 iu: 0.00E+00 rsn:   0
  1 2r: 6.46E-17 2x: 9.35E-01 2u: 2.55E-01 ir: 5.55E-17 iu: 1.69E-01 rsn: rtol

 Step      8 Time=  1.06250E-02 Dt=  5.33333E-03 [d] conv_reason: 3
  newton =   1 [       8] linear =     1 [         8] cuts =  0 [   0]
  --> SNES Linear/Non-Linear Iterations = 1 / 1
  --> SNES Residual: 0.645609E-16 0.645609E-16 0.555112E-16
  --> max change:  dcmx=   1.6875E-01  dc/dt=   3.6621E-04 [mol/s]
 Maximum Pore Velocity:   7.5911E+00 [m/d]

== RICHARDS FLOW ===============================================================
  0 2r: 3.67E-16 2x: 0.00E+00 2u: 0.00E+00 ir: 1.34E-16 iu: 0.00E+00 rsn:   0
  1 2r: 4.65E-16 2x: 1.26E+06 2u: 3.02E-10 ir: 1.41E-16 iu: 4.82E-11 rsn: stol

 Step      9 Time=  2.12917E-02 Dt=  1.06667E-02 [d] conv_reason: 4
  newton =   1 [      11] linear =     1 [        11] cuts =  0 [   0]
  --> SNES Linear/Non-Linear Iterations = 1 / 1
  --> SNES Residual: 0.464784E-15 0.464784E-17 0.140513E-15
  --> max change: dpmx=   5.8208E-11

== REACTIVE TRANSPORT ==========================================================
  0 2r: 5.52E-02 2x: 0.00E+00 2u: 0.00E+00 ir: 3.65E-02 iu: 0.00E+00 rsn:   0
  1 2r: 5.09E-17 2x: 1.16E+00 2u: 3.07E-01 ir: 4.16E-17 iu: 1.68E-01 rsn: rtol

 Step      9 Time=  2.12917E-02 Dt=  1.06667E-02 [d] conv_reason: 3
  newton =   1 [       9] linear =     1 [         9] cuts =  0 [   0]
  --> SNES Linear/Non-Linear Iterations = 1 / 1
  --> SNES Residual: 0.509384E-16 0.509384E-16 0.416334E-16
  --> max change:  dcmx=   1.6838E-01  dc/dt=   1.8270E-04 [mol/s]
 Maximum Pore Velocity:   7.5911E+00 [m/d]

== RICHARDS FLOW ===============================================================
  0 2r: 4.65E-16 2x: 0.00E+00 2u: 0.00E+00 ir: 1.40E-16 iu: 0.00E+00 rsn:   0
  1 2r: 4.28E-16 2x: 1.26E+06 2u: 1.97E-10 ir: 1.18E-16 iu: 3.30E-11 rsn: stol

 Step     10 Time=  4.26250E-02 Dt=  2.13333E-02 [d] conv_reason: 4
  newton =   1 [      12] linear =     1 [        12] cuts =  0 [   0]
  --> SNES Linear/Non-Linear Iterations = 1 / 1
  --> SNES Residual: 0.428244E-15 0.428244E-17 0.118395E-15
  --> max change: dpmx=   2.9104E-11

== REACTIVE TRANSPORT ==========================================================
  0 2r: 3.32E-02 2x: 0.00E+00 2u: 0.00E+00 ir: 1.82E-02 iu: 0.00E+00 rsn:   0
  1 2r: 8.80E-17 2x: 1.43E+00 2u: 3.79E-01 ir: 6.25E-17 iu: 1.76E-01 rsn: rtol

 Step     10 Time=  4.26250E-02 Dt=  2.13333E-02 [d] conv_reason: 3
  newton =   1 [      10] linear =     1 [        10] cuts =  0 [   0]
  --> SNES Linear/Non-Linear Iterations = 1 / 1
  --> SNES Residual: 0.880375E-16 0.880375E-16 0.624500E-16
  --> max change:  dcmx=   1.7603E-01  dc/dt=   9.5500E-05 [mol/s]
 Maximum Pore Velocity:   7.5911E+00 [m/d]

== RICHARDS FLOW ===============================================================
  0 2r: 4.29E-16 2x: 0.00E+00 2u: 0.00E+00 ir: 1.19E-16 iu: 0.00E+00 rsn:   0
  1 2r: 4.87E-16 2x: 1.26E+06 2u: 7.34E-11 ir: 1.48E-16 iu: 1.71E-11 rsn: stol

 Step     11 Time=  8.52917E-02 Dt=  4.26667E-02 [d] conv_reason: 4
  newton =   1 [      13] linear =     1 [        13] cuts =  0 [   0]
  --> SNES Linear/Non-Linear Iterations = 1 / 1
  --> SNES Residual: 0.486615E-15 0.486615E-17 0.148319E-15
  --> max change: dpmx=   2.9104E-11

== REACTIVE TRANSPORT ==========================================================
  0 2r: 2.05E-02 2x: 0.00E+00 2u: 0.00E+00 ir: 9.52E-03 iu: 0.00E+00 rsn:   0
  1 2r: 8.17E-17 2x: 1.76E+00 2u: 4.80E-01 ir: 6.59E-17 iu: 1.86E-01 rsn: rtol

 Step     11 Time=  8.52917E-02 Dt=  4.26667E-02 [d] conv_reason: 3
  newton =   1 [      11] linear =     1 [        11] cuts =  0 [   0]
  --> SNES Linear/Non-Linear Iterations = 1 / 1
  --> SNES Residual: 0.817242E-16 0.817242E-16 0.659195E-16
  --> max change:  dcmx=   1.8557E-01  dc/dt=   5.0340E-05 [mol/s]
 Maximum Pore Velocity:   7.5911E+00 [m/d]
 CFL Limiting ( 1.0):   8.5333E-02 ->   5.2693E-02 [d]

== RICHARDS FLOW ===============================================================
  0 2r: 4.87E-16 2x: 0.00E+00 2u: 0.00E+00 ir: 1.48E-16 iu: 0.00E+00 rsn:   0
  1 2r: 4.87E-16 2x: 1.26E+06 2u: 6.12E-11 ir: 1.48E-16 iu: 1.44E-11 rsn: stol

 Step     12 Time=  1.70625E-01 Dt=  8.53333E-02 [d] conv_reason: 4
  newton =   1 [      14] linear =     1 [        14] cuts =  0 [   0]
  --> SNES Linear/Non-Linear Iterations = 1 / 1
  --> SNES Residual: 0.486615E-15 0.486615E-17 0.148319E-15
  --> max change: dpmx=   0.0000E+00

== REACTIVE TRANSPORT ==========================================================
  0 2r: 1.30E-02 2x: 0.00E+00 2u: 0.00E+00 ir: 5.02E-03 iu: 0.00E+00 rsn:   0
  1 2r: 1.24E-16 2x: 2.05E+00 2u: 4.31E-01 ir: 8.15E-17 iu: 1.44E-01 rsn: rtol

 Step     12 Time=  1.37985E-01 Dt=  5.26933E-02 [d] conv_reason: 3
  newton =   1 [      12] linear =     1 [        12] cuts =  0 [   0]
  --> SNES Linear/Non-Linear Iterations = 1 / 1
  --> SNES Residual: 0.123567E-15 0.123567E-15 0.815320E-16
  --> max change:  dcmx=   1.4417E-01  dc/dt=   3.1668E-05 [mol/s]
 Maximum Pore Velocity:   7.5911E+00 [m/d]
 CFL Limiting ( 1.0):   1.0539E-01 ->   5.2693E-02 [d]

== REACTIVE TRANSPORT ==========================================================
  0 2r: 9.43E-03 2x: 0.00E+00 2u: 0.00E+00 ir: 3.16E-03 iu: 0.00E+00 rsn:   0
  1 2r: 1.11E-16 2x: 2.22E+00 2u: 2.31E-01 ir: 5.90E-17 iu: 7.18E-02 rsn: rtol

 Step     13 Time=  1.70625E-01 Dt=  3.26400E-02 [d] conv_reason: 3
  newton =   1 [      13] linear =     1 [        13] cuts =  0 [   0]
  --> SNES Linear/Non-Linear Iterations = 1 / 1
  --> SNES Residual: 0.111148E-15 0.111148E-15 0.589806E-16
  --> max change:  dcmx=   7.1814E-02  dc/dt=   2.5465E-05 [mol/s]
 Maximum Pore Velocity:   7.5911E+00 [m/d]
 CFL Limiting ( 1.0):   6.5280E-02 ->   5.2693E-02 [d]

== RICHARDS FLOW ===============================================================
  0 2r: 4.87E-16 2x: 0.00E+00 2u: 0.00E+00 ir: 1.48E-16 iu: 0.00E+00 rsn:   0
  1 2r: 4.87E-16 2x: 1.26E+06 2u: 6.12E-11 ir: 1.48E-16 iu: 1.44E-11 rsn: stol

 Step     13 Time=  3.41292E-01 Dt=  1.70667E-01 [d] conv_reason: 4
  newton =   1 [      15] linear =     1 [        15] cuts =  0 [   0]
  --> SNES Linear/Non-Linear Iterations = 1 / 1
  --> SNES Residual: 0.486615E-15 0.486615E-17 0.148319E-15
  --> max change: dpmx=   0.0000E+00

== REACTIVE TRANSPORT ==========================================================
  0 2r: 8.16E-03 2x: 0.00E+00 2u: 0.00E+00 ir: 2.54E-03 iu: 0.00E+00 rsn:   0
  1 2r: 1.16E-16 2x: 2.43E+00 2u: 3.16E-01 ir: 7.63E-17 iu: 9.07E-02 rsn: rtol

 Step     14 Time=  2.23318E-01 Dt=  5.26933E-02 [d] conv_reason: 3
  newton =   1 [      14] linear =     1 [        14] cuts =  0 [   0]
  --> SNES Linear/Non-Linear Iterations = 1 / 1
  --> SNES Residual: 0.116486E-15 0.116486E-15 0.763278E-16
  --> max change:  dcmx=   9.0693E-02  dc/dt=   1.9921E-05 [mol/s]
 Maximum Pore Velocity:   7.5911E+00 [m/d]
 CFL Limiting ( 1.0):   1.0539E-01 ->   5.2693E-02 [d]

== REACTIVE TRANSPORT ==========================================================
  0 2r: 6.92E-03 2x: 0.00E+00 2u: 0.00E+00 ir: 1.99E-03 iu: 0.00E+00 rsn:   0
  1 2r: 7.95E-17 2x: 2.62E+00 2u: 2.79E-01 ir: 4.86E-17 iu: 7.50E-02 rsn: rtol

 Step     15 Time=  2.76012E-01 Dt=  5.26933E-02 [d] conv_reason: 3
  newton =   1 [      15] linear =     1 [        15] cuts =  0 [   0]
  --> SNES Linear/Non-Linear Iterations = 1 / 1
  --> SNES Residual: 0.795295E-16 0.795295E-16 0.485723E-16
  --> max change:  dcmx=   7.5002E-02  dc/dt=   1.6474E-05 [mol/s]
 Maximum Pore Velocity:   7.5911E+00 [m/d]
 CFL Limiting ( 1.0):   1.0539E-01 ->   5.2693E-02 [d]

== REACTIVE TRANSPORT ==========================================================
  0 2r: 6.10E-03 2x: 0.00E+00 2u: 0.00E+00 ir: 1.64E-03 iu: 0.00E+00 rsn:   0
  1 2r: 1.18E-16 2x: 2.80E+00 2u: 2.52E-01 ir: 4.86E-17 iu: 6.44E-02 rsn: rtol

 Step     16 Time=  3.28705E-01 Dt=  5.26933E-02 [d] conv_reason: 3
  newton =   1 [      16] linear =     1 [        16] cuts =  0 [   0]
  --> SNES Linear/Non-Linear Iterations = 1 / 1
  --> SNES Residual: 0.117736E-15 0.117736E-15 0.485723E-16
  --> max change:  dcmx=   6.4358E-02  dc/dt=   1.4136E-05 [mol/s]
 Maximum Pore Velocity:   7.5911E+00 [m/d]
 CFL Limiting ( 1.0):   1.0539E-01 ->   5.2693E-02 [d]

== REACTIVE TRANSPORT ==========================================================
  0 2r: 5.53E-03 2x: 0.00E+00 2u: 0.00E+00 ir: 1.41E-03 iu: 0.00E+00 rsn:   0
  1 2r: 1.50E-16 2x: 2.84E+00 2u: 5.90E-02 ir: 6.94E-17 iu: 1.49E-02 rsn: rtol

 Step     17 Time=  3.41292E-01 Dt=  1.25867E-02 [d] conv_reason: 3
  newton =   1 [      17] linear =     1 [        17] cuts =  0 [   0]
  --> SNES Linear/Non-Linear Iterations = 1 / 1
  --> SNES Residual: 0.149551E-15 0.149551E-15 0.693889E-16
  --> max change:  dcmx=   1.4885E-02  dc/dt=   1.3688E-05 [mol/s]
 Maximum Pore Velocity:   7.5911E+00 [m/d]

== RICHARDS FLOW ===============================================================
  0 2r: 4.87E-16 2x: 0.00E+00 2u: 0.00E+00 ir: 1.48E-16 iu: 0.00E+00 rsn:   0
  1 2r: 4.87E-16 2x: 1.26E+06 2u: 6.12E-11 ir: 1.48E-16 iu: 1.44E-11 rsn: stol

 Step     14 Time=  6.82625E-01 Dt=  3.41333E-01 [d] conv_reason: 4
  newton =   1 [      16] linear =     1 [        16] cuts =  0 [   0]
  --> SNES Linear/Non-Linear Iterations = 1 / 1
  --> SNES Residual: 0.486615E-15 0.486615E-17 0.148319E-15
  --> max change: dpmx=   0.0000E+00

== REACTIVE TRANSPORT ==========================================================
  0 2r: 5.41E-03 2x: 0.00E+00 2u: 0.00E+00 ir: 1.36E-03 iu: 0.00E+00 rsn:   0
  1 2r: 1.98E-16 2x: 2.99E+00 2u: 2.28E-01 ir: 1.09E-16 iu: 5.52E-02 rsn: rtol

 Step     18 Time=  3.93985E-01 Dt=  5.26933E-02 [d] conv_reason: 3
  newton =   1 [      18] linear =     1 [        18] cuts =  0 [   0]
  --> SNES Linear/Non-Linear Iterations = 1 / 1
  --> SNES Residual: 0.197857E-15 0.197857E-15 0.109288E-15
  --> max change:  dcmx=   5.5186E-02  dc/dt=   1.2122E-05 [mol/s]
 Maximum Pore Velocity:   7.5911E+00 [m/d]
 CFL Limiting ( 1.0):   1.0539E-01 ->   5.2693E-02 [d]

== REACTIVE TRANSPORT ==========================================================
  0 2r: 5.00E-03 2x: 0.00E+00 2u: 0.00E+00 ir: 1.21E-03 iu: 0.00E+00 rsn:   0
  1 2r: 1.59E-16 2x: 3.14E+00 2u: 2.14E-01 ir: 6.94E-17 iu: 4.98E-02 rsn: rtol

 Step     19 Time=  4.46678E-01 Dt=  5.26933E-02 [d] conv_reason: 3
  newton =   1 [      19] linear =     1 [        19] cuts =  0 [   0]
  --> SNES Linear/Non-Linear Iterations = 1 / 1
  --> SNES Residual: 0.158567E-15 0.158567E-15 0.693889E-16
  --> max change:  dcmx=   4.9776E-02  dc/dt=   1.0933E-05 [mol/s]
 Maximum Pore Velocity:   7.5911E+00 [m/d]
 CFL Limiting ( 1.0):   1.0539E-01 ->   5.2693E-02 [d]

== REACTIVE TRANSPORT ==========================================================
  0 2r: 4.68E-03 2x: 0.00E+00 2u: 0.00E+00 ir: 1.09E-03 iu: 0.00E+00 rsn:   0
  1 2r: 1.67E-16 2x: 3.27E+00 2u: 2.02E-01 ir: 9.37E-17 iu: 4.55E-02 rsn: rtol

 Step     20 Time=  4.99372E-01 Dt=  5.26933E-02 [d] conv_reason: 3
  newton =   1 [      20] linear =     1 [        20] cuts =  0 [   0]
  --> SNES Linear/Non-Linear Iterations = 1 / 1
  --> SNES Residual: 0.167017E-15 0.167017E-15 0.936751E-16
  --> max change:  dcmx=   4.5473E-02  dc/dt=   9.9881E-06 [mol/s]
 Maximum Pore Velocity:   7.5911E+00 [m/d]
 CFL Limiting ( 1.0):   1.0539E-01 ->   5.2693E-02 [d]

== REACTIVE TRANSPORT ==========================================================
  0 2r: 4.42E-03 2x: 0.00E+00 2u: 0.00E+00 ir: 9.96E-04 iu: 0.00E+00 rsn:   0
  1 2r: 1.20E-16 2x: 3.40E+00 2u: 1.92E-01 ir: 4.51E-17 iu: 4.20E-02 rsn: rtol

 Step     21 Time=  5.52065E-01 Dt=  5.26933E-02 [d] conv_reason: 3
  newton =   1 [      21] linear =     1 [        21] cuts =  0 [   0]
  --> SNES Linear/Non-Linear Iterations = 1 / 1
  --> SNES Residual: 0.120102E-15 0.120102E-15 0.451028E-16
  --> max change:  dcmx=   4.1963E-02  dc/dt=   9.2172E-06 [mol/s]
 Maximum Pore Velocity:   7.5911E+00 [m/d]
 CFL Limiting ( 1.0):   1.0539E-01 ->   5.2693E-02 [d]

== REACTIVE TRANSPORT ==========================================================
  0 2r: 4.21E-03 2x: 0.00E+00 2u: 0.00E+00 ir: 9.19E-04 iu: 0.00E+00 rsn:   0
  1 2r: 1.64E-16 2x: 3.52E+00 2u: 1.84E-01 ir: 6.25E-17 iu: 3.91E-02 rsn: rtol

 Step     22 Time=  6.04758E-01 Dt=  5.26933E-02 [d] conv_reason: 3
  newton =   1 [      22] linear =     1 [        22] cuts =  0 [   0]
  --> SNES Linear/Non-Linear Iterations = 1 / 1
  --> SNES Residual: 0.163601E-15 0.163601E-15 0.624500E-16
  --> max change:  dcmx=   3.9085E-02  dc/dt=   8.5850E-06 [mol/s]
 Maximum Pore Velocity:   7.5911E+00 [m/d]
 CFL Limiting ( 1.0):   1.0539E-01 ->   5.2693E-02 [d]

== REACTIVE TRANSPORT ==========================================================
  0 2r: 4.03E-03 2x: 0.00E+00 2u: 0.00E+00 ir: 8.56E-04 iu: 0.00E+00 rsn:   0
  1 2r: 1.64E-16 2x: 3.64E+00 2u: 1.77E-01 ir: 9.37E-17 iu: 3.66E-02 rsn: rtol

 Step     23 Time=  6.57452E-01 Dt=  5.26933E-02 [d] conv_reason: 3
  newton =   1 [      23] linear =     1 [        23] cuts =  0 [   0]
  --> SNES Linear/Non-Linear Iterations = 1 / 1
  --> SNES Residual: 0.164053E-15 0.164053E-15 0.936751E-16
  --> max change:  dcmx=   3.6628E-02  dc/dt=   8.0454E-06 [mol/s]
 Maximum Pore Velocity:   7.5911E+00 [m/d]
 CFL Limiting ( 1.0):   1.0539E-01 ->   5.2693E-02 [d]

== REACTIVE TRANSPORT ==========================================================
  0 2r: 3.87E-03 2x: 0.00E+00 2u: 0.00E+00 ir: 8.02E-04 iu: 0.00E+00 rsn:   0
  1 2r: 2.84E-16 2x: 3.69E+00 2u: 8.29E-02 ir: 1.56E-16 iu: 1.70E-02 rsn: rtol

 Step     24 Time=  6.82625E-01 Dt=  2.51734E-02 [d] conv_reason: 3
  newton =   1 [      24] linear =     1 [        24] cuts =  0 [   0]
  --> SNES Linear/Non-Linear Iterations = 1 / 1
  --> SNES Residual: 0.284362E-15 0.284362E-15 0.156125E-15
  --> max change:  dcmx=   1.7006E-02  dc/dt=   7.8189E-06 [mol/s]
 Maximum Pore Velocity:   7.5911E+00 [m/d]

== RICHARDS FLOW ===============================================================
  0 2r: 4.87E-16 2x: 0.00E+00 2u: 0.00E+00 ir: 1.48E-16 iu: 0.00E+00 rsn:   0
  1 2r: 4.87E-16 2x: 1.26E+06 2u: 6.12E-11 ir: 1.48E-16 iu: 1.44E-11 rsn: stol

 Step     15 Time=  1.36529E+00 Dt=  6.82667E-01 [d] conv_reason: 4
  newton =   1 [      17] linear =     1 [        17] cuts =  0 [   0]
  --> SNES Linear/Non-Linear Iterations = 1 / 1
  --> SNES Residual: 0.486615E-15 0.486615E-17 0.148319E-15
  --> max change: dpmx=   0.0000E+00

== REACTIVE TRANSPORT ==========================================================
  0 2r: 3.80E-03 2x: 0.00E+00 2u: 0.00E+00 ir: 7.80E-04 iu: 0.00E+00 rsn:   0
  1 2r: 2.15E-16 2x: 3.81E+00 2u: 1.68E-01 ir: 9.54E-17 iu: 3.36E-02 rsn: rtol

 Step     25 Time=  7.35318E-01 Dt=  5.26933E-02 [d] conv_reason: 3
  newton =   1 [      25] linear =     1 [        25] cuts =  0 [   0]
  --> SNES Linear/Non-Linear Iterations = 1 / 1
  --> SNES Residual: 0.215172E-15 0.215172E-15 0.954098E-16
  --> max change:  dcmx=   3.3637E-02  dc/dt=   7.3884E-06 [mol/s]
 Maximum Pore Velocity:   7.5911E+00 [m/d]
 CFL Limiting ( 1.0):   1.0539E-01 ->   5.2693E-02 [d]

== REACTIVE TRANSPORT ==========================================================
  0 2r: 3.67E-03 2x: 0.00E+00 2u: 0.00E+00 ir: 7.37E-04 iu: 0.00E+00 rsn:   0
  1 2r: 2.50E-16 2x: 3.91E+00 2u: 1.62E-01 ir: 1.01E-16 iu: 3.19E-02 rsn: rtol

 Step     26 Time=  7.88012E-01 Dt=  5.26933E-02 [d] conv_reason: 3
  newton =   1 [      26] linear =     1 [        26] cuts =  0 [   0]
  --> SNES Linear/Non-Linear Iterations = 1 / 1
  --> SNES Residual: 0.250496E-15 0.250496E-15 0.100614E-15
  --> max change:  dcmx=   3.1919E-02  dc/dt=   7.0111E-06 [mol/s]
 Maximum Pore Velocity:   7.5911E+00 [m/d]
 CFL Limiting ( 1.0):   1.0539E-01 ->   5.2693E-02 [d]

== REACTIVE TRANSPORT ==========================================================
  0 2r: 3.56E-03 2x: 0.00E+00 2u: 0.00E+00 ir: 6.99E-04 iu: 0.00E+00 rsn:   0
  1 2r: 1.64E-16 2x: 4.02E+00 2u: 1.58E-01 ir: 6.25E-17 iu: 3.04E-02 rsn: rtol

 Step     27 Time=  8.40705E-01 Dt=  5.26933E-02 [d] conv_reason: 3
  newton =   1 [      27] linear =     1 [        27] cuts =  0 [   0]
  --> SNES Linear/Non-Linear Iterations = 1 / 1
  --> SNES Residual: 0.164376E-15 0.164376E-15 0.624500E-16
  --> max change:  dcmx=   3.0432E-02  dc/dt=   6.6844E-06 [mol/s]
 Maximum Pore Velocity:   7.5911E+00 [m/d]
 CFL Limiting ( 1.0):   1.0539E-01 ->   5.2693E-02 [d]

== REACTIVE TRANSPORT ==========================================================
  0 2r: 3.46E-03 2x: 0.00E+00 2u: 0.00E+00 ir: 6.67E-04 iu: 0.00E+00 rsn:   0
  1 2r: 1.82E-16 2x: 4.12E+00 2u: 1.54E-01 ir: 6.25E-17 iu: 2.91E-02 rsn: rtol

 Step     28 Time=  8.93398E-01 Dt=  5.26933E-02 [d] conv_reason: 3
  newton =   1 [      28] linear =     1 [        28] cuts =  0 [   0]
  --> SNES Linear/Non-Linear Iterations = 1 / 1
  --> SNES Residual: 0.181900E-15 0.181900E-15 0.624500E-16
  --> max change:  dcmx=   2.9103E-02  dc/dt=   6.3924E-06 [mol/s]
 Maximum Pore Velocity:   7.5911E+00 [m/d]
 CFL Limiting ( 1.0):   1.0539E-01 ->   5.2693E-02 [d]

== REACTIVE TRANSPORT ==========================================================
  0 2r: 3.36E-03 2x: 0.00E+00 2u: 0.00E+00 ir: 6.37E-04 iu: 0.00E+00 rsn:   0
  1 2r: 2.26E-16 2x: 4.22E+00 2u: 1.50E-01 ir: 8.67E-17 iu: 2.79E-02 rsn: rtol

 Step     29 Time=  9.46092E-01 Dt=  5.26933E-02 [d] conv_reason: 3
  newton =   1 [      29] linear =     1 [        29] cuts =  0 [   0]
  --> SNES Linear/Non-Linear Iterations = 1 / 1
  --> SNES Residual: 0.226165E-15 0.226165E-15 0.867362E-16
  --> max change:  dcmx=   2.7908E-02  dc/dt=   6.1300E-06 [mol/s]
 Maximum Pore Velocity:   7.5911E+00 [m/d]
 CFL Limiting ( 1.0):   1.0539E-01 ->   5.2693E-02 [d]

== REACTIVE TRANSPORT ==========================================================
  0 2r: 3.28E-03 2x: 0.00E+00 2u: 0.00E+00 ir: 6.11E-04 iu: 0.00E+00 rsn:   0
  1 2r: 2.45E-16 2x: 4.31E+00 2u: 1.46E-01 ir: 1.11E-16 iu: 2.68E-02 rsn: rtol

 Step     30 Time=  9.98785E-01 Dt=  5.26933E-02 [d] conv_reason: 3
  newton =   1 [      30] linear =     1 [        30] cuts =  0 [   0]
  --> SNES Linear/Non-Linear Iterations = 1 / 1
  --> SNES Residual: 0.244739E-15 0.244739E-15 0.111022E-15
  --> max change:  dcmx=   2.6828E-02  dc/dt=   5.8927E-06 [mol/s]
 Maximum Pore Velocity:   7.5911E+00 [m/d]
 CFL Limiting ( 1.0):   1.0539E-01 ->   5.2693E-02 [d]

== REACTIVE TRANSPORT ==========================================================
  0 2r: 3.21E-03 2x: 0.00E+00 2u: 0.00E+00 ir: 5.88E-04 iu: 0.00E+00 rsn:   0
  1 2r: 2.08E-16 2x: 4.40E+00 2u: 1.43E-01 ir: 9.71E-17 iu: 2.59E-02 rsn: rtol

 Step     31 Time=  1.05148E+00 Dt=  5.26933E-02 [d] conv_reason: 3
  newton =   1 [      31] linear =     1 [        31] cuts =  0 [   0]
  --> SNES Linear/Non-Linear Iterations = 1 / 1
  --> SNES Residual: 0.207541E-15 0.207541E-15 0.971445E-16
  --> max change:  dcmx=   2.5859E-02  dc/dt=   5.6799E-06 [mol/s]
 Maximum Pore Velocity:   7.5911E+00 [m/d]
 CFL Limiting ( 1.0):   1.0539E-01 ->   5.2693E-02 [d]

== REACTIVE TRANSPORT ==========================================================
  0 2r: 3.14E-03 2x: 0.00E+00 2u: 0.00E+00 ir: 5.66E-04 iu: 0.00E+00 rsn:   0
  1 2r: 2.52E-16 2x: 4.50E+00 2u: 1.40E-01 ir: 1.35E-16 iu: 2.50E-02 rsn: rtol

 Step     32 Time=  1.10417E+00 Dt=  5.26933E-02 [d] conv_reason: 3
  newton =   1 [      32] linear =     1 [        32] cuts =  0 [   0]
  --> SNES Linear/Non-Linear Iterations = 1 / 1
  --> SNES Residual: 0.252107E-15 0.252107E-15 0.135308E-15
  --> max change:  dcmx=   2.4978E-02  dc/dt=   5.4863E-06 [mol/s]
 Maximum Pore Velocity:   7.5911E+00 [m/d]
 CFL Limiting ( 1.0):   1.0539E-01 ->   5.2693E-02 [d]

== REACTIVE TRANSPORT ==========================================================
  0 2r: 3.07E-03 2x: 0.00E+00 2u: 0.00E+00 ir: 5.47E-04 iu: 0.00E+00 rsn:   0
  1 2r: 2.23E-16 2x: 4.59E+00 2u: 1.38E-01 ir: 7.63E-17 iu: 2.42E-02 rsn: rtol

 Step     33 Time=  1.15686E+00 Dt=  5.26933E-02 [d] conv_reason: 3
  newton =   1 [      33] linear =     1 [        33] cuts =  0 [   0]
  --> SNES Linear/Non-Linear Iterations = 1 / 1
  --> SNES Residual: 0.223168E-15 0.223168E-15 0.763278E-16
  --> max change:  dcmx=   2.4168E-02  dc/dt=   5.3086E-06 [mol/s]
 Maximum Pore Velocity:   7.5911E+00 [m/d]
 CFL Limiting ( 1.0):   1.0539E-01 ->   5.2693E-02 [d]

== REACTIVE TRANSPORT ==========================================================
  0 2r: 3.01E-03 2x: 0.00E+00 2u: 0.00E+00 ir: 5.29E-04 iu: 0.00E+00 rsn:   0
  1 2r: 1.87E-16 2x: 4.67E+00 2u: 1.35E-01 ir: 6.59E-17 iu: 2.34E-02 rsn: rtol

 Step     34 Time=  1.20956E+00 Dt=  5.26933E-02 [d] conv_reason: 3
  newton =   1 [      34] linear =     1 [        34] cuts =  0 [   0]
  --> SNES Linear/Non-Linear Iterations = 1 / 1
  --> SNES Residual: 0.186573E-15 0.186573E-15 0.659195E-16
  --> max change:  dcmx=   2.3423E-02  dc/dt=   5.1448E-06 [mol/s]
 Maximum Pore Velocity:   7.5911E+00 [m/d]
 CFL Limiting ( 1.0):   1.0539E-01 ->   5.2693E-02 [d]

== REACTIVE TRANSPORT ==========================================================
  0 2r: 2.96E-03 2x: 0.00E+00 2u: 0.00E+00 ir: 5.13E-04 iu: 0.00E+00 rsn:   0
  1 2r: 1.97E-16 2x: 4.76E+00 2u: 1.33E-01 ir: 7.63E-17 iu: 2.27E-02 rsn: rtol

 Step     35 Time=  1.26225E+00 Dt=  5.26933E-02 [d] conv_reason: 3
  newton =   1 [      35] linear =     1 [        35] cuts =  0 [   0]
  --> SNES Linear/Non-Linear Iterations = 1 / 1
  --> SNES Residual: 0.196996E-15 0.196996E-15 0.763278E-16
  --> max change:  dcmx=   2.2733E-02  dc/dt=   4.9933E-06 [mol/s]
 Maximum Pore Velocity:   7.5911E+00 [m/d]
 CFL Limiting ( 1.0):   1.0539E-01 ->   5.2693E-02 [d]

== REACTIVE TRANSPORT ==========================================================
  0 2r: 2.91E-03 2x: 0.00E+00 2u: 0.00E+00 ir: 4.98E-04 iu: 0.00E+00 rsn:   0
  1 2r: 2.31E-16 2x: 4.84E+00 2u: 1.31E-01 ir: 7.29E-17 iu: 2.21E-02 rsn: rtol

 Step     36 Time=  1.31494E+00 Dt=  5.26933E-02 [d] conv_reason: 3
  newton =   1 [      36] linear =     1 [        36] cuts =  0 [   0]
  --> SNES Linear/Non-Linear Iterations = 1 / 1
  --> SNES Residual: 0.230836E-15 0.230836E-15 0.728584E-16
  --> max change:  dcmx=   2.2094E-02  dc/dt=   4.8530E-06 [mol/s]
 Maximum Pore Velocity:   7.5911E+00 [m/d]
 CFL Limiting ( 1.0):   1.0539E-01 ->   5.2693E-02 [d]

== REACTIVE TRANSPORT ==========================================================
  0 2r: 2.86E-03 2x: 0.00E+00 2u: 0.00E+00 ir: 4.84E-04 iu: 0.00E+00 rsn:   0
  1 2r: 2.20E-16 2x: 4.92E+00 2u: 1.23E-01 ir: 7.29E-17 iu: 2.06E-02 rsn: rtol

 Step     37 Time=  1.36529E+00 Dt=  5.03467E-02 [d] conv_reason: 3
  newton =   1 [      37] linear =     1 [        37] cuts =  0 [   0]
  --> SNES Linear/Non-Linear Iterations = 1 / 1
  --> SNES Residual: 0.219540E-15 0.219540E-15 0.728584E-16
  --> max change:  dcmx=   2.0573E-02  dc/dt=   4.7296E-06 [mol/s]
 Maximum Pore Velocity:   7.5911E+00 [m/d]
 CFL Limiting ( 1.0):   1.0069E-01 ->   5.2693E-02 [d]

== RICHARDS FLOW ===============================================================
  0 2r: 4.87E-16 2x: 0.00E+00 2u: 0.00E+00 ir: 1.48E-16 iu: 0.00E+00 rsn:   0
  1 2r: 4.87E-16 2x: 1.26E+06 2u: 6.12E-11 ir: 1.48E-16 iu: 1.44E-11 rsn: stol

 Step     16 Time=  2.36529E+00 Dt=  1.00000E+00 [d] conv_reason: 4
  newton =   1 [      18] linear =     1 [        18] cuts =  0 [   0]
  --> SNES Linear/Non-Linear Iterations = 1 / 1
  --> SNES Residual: 0.486615E-15 0.486615E-17 0.148319E-15
  --> max change: dpmx=   0.0000E+00

== REACTIVE TRANSPORT ==========================================================
  0 2r: 2.82E-03 2x: 0.00E+00 2u: 0.00E+00 ir: 4.72E-04 iu: 0.00E+00 rsn:   0
  1 2r: 2.01E-16 2x: 5.00E+00 2u: 1.27E-01 ir: 6.25E-17 iu: 2.10E-02 rsn: rtol

 Step     38 Time=  1.41798E+00 Dt=  5.26933E-02 [d] conv_reason: 3
  newton =   1 [      38] linear =     1 [        38] cuts =  0 [   0]
  --> SNES Linear/Non-Linear Iterations = 1 / 1
  --> SNES Residual: 0.201333E-15 0.201333E-15 0.624500E-16
  --> max change:  dcmx=   2.0983E-02  dc/dt=   4.6088E-06 [mol/s]
 Maximum Pore Velocity:   7.5911E+00 [m/d]
 CFL Limiting ( 1.0):   1.0539E-01 ->   5.2693E-02 [d]

== REACTIVE TRANSPORT ==========================================================
  0 2r: 2.78E-03 2x: 0.00E+00 2u: 0.00E+00 ir: 4.60E-04 iu: 0.00E+00 rsn:   0
  1 2r: 2.44E-16 2x: 5.09E+00 2u: 1.25E-01 ir: 1.08E-16 iu: 2.05E-02 rsn: rtol

 Step     39 Time=  1.47068E+00 Dt=  5.26933E-02 [d] conv_reason: 3
  newton =   1 [      39] linear =     1 [        39] cuts =  0 [   0]
  --> SNES Linear/Non-Linear Iterations = 1 / 1
  --> SNES Residual: 0.243532E-15 0.243532E-15 0.107553E-15
  --> max change:  dcmx=   2.0468E-02  dc/dt=   4.4958E-06 [mol/s]
 Maximum Pore Velocity:   7.5911E+00 [m/d]
 CFL Limiting ( 1.0):   1.0539E-01 ->   5.2693E-02 [d]

== REACTIVE TRANSPORT ==========================================================
  0 2r: 2.74E-03 2x: 0.00E+00 2u: 0.00E+00 ir: 4.48E-04 iu: 0.00E+00 rsn:   0
  1 2r: 3.01E-16 2x: 5.16E+00 2u: 1.23E-01 ir: 1.01E-16 iu: 2.00E-02 rsn: rtol

 Step     40 Time=  1.52337E+00 Dt=  5.26933E-02 [d] conv_reason: 3
  newton =   1 [      40] linear =     1 [        40] cuts =  0 [   0]
  --> SNES Linear/Non-Linear Iterations = 1 / 1
  --> SNES Residual: 0.300799E-15 0.300799E-15 0.100614E-15
  --> max change:  dcmx=   1.9985E-02  dc/dt=   4.3897E-06 [mol/s]
 Maximum Pore Velocity:   7.5911E+00 [m/d]
 CFL Limiting ( 1.0):   1.0539E-01 ->   5.2693E-02 [d]

== REACTIVE TRANSPORT ==========================================================
  0 2r: 2.70E-03 2x: 0.00E+00 2u: 0.00E+00 ir: 4.38E-04 iu: 0.00E+00 rsn:   0
  1 2r: 2.38E-16 2x: 5.24E+00 2u: 1.22E-01 ir: 8.50E-17 iu: 1.95E-02 rsn: rtol

 Step     41 Time=  1.57606E+00 Dt=  5.26933E-02 [d] conv_reason: 3
  newton =   1 [      41] linear =     1 [        41] cuts =  0 [   0]
  --> SNES Linear/Non-Linear Iterations = 1 / 1
  --> SNES Residual: 0.237515E-15 0.237515E-15 0.850015E-16
  --> max change:  dcmx=   1.9531E-02  dc/dt=   4.2899E-06 [mol/s]
 Maximum Pore Velocity:   7.5911E+00 [m/d]
 CFL Limiting ( 1.0):   1.0539E-01 ->   5.2693E-02 [d]

== REACTIVE TRANSPORT ==========================================================
  0 2r: 2.67E-03 2x: 0.00E+00 2u: 0.00E+00 ir: 4.28E-04 iu: 0.00E+00 rsn:   0
  1 2r: 2.82E-16 2x: 5.32E+00 2u: 1.20E-01 ir: 1.25E-16 iu: 1.91E-02 rsn: rtol

 Step     42 Time=  1.62876E+00 Dt=  5.26933E-02 [d] conv_reason: 3
  newton =   1 [      42] linear =     1 [        42] cuts =  0 [   0]
  --> SNES Linear/Non-Linear Iterations = 1 / 1
  --> SNES Residual: 0.281812E-15 0.281812E-15 0.124900E-15
  --> max change:  dcmx=   1.9103E-02  dc/dt=   4.1960E-06 [mol/s]
 Maximum Pore Velocity:   7.5911E+00 [m/d]
 CFL Limiting ( 1.0):   1.0539E-01 ->   5.2693E-02 [d]

== REACTIVE TRANSPORT ==========================================================
  0 2r: 2.63E-03 2x: 0.00E+00 2u: 0.00E+00 ir: 4.18E-04 iu: 0.00E+00 rsn:   0
  1 2r: 2.77E-16 2x: 5.40E+00 2u: 1.19E-01 ir: 1.30E-16 iu: 1.87E-02 rsn: rtol

 Step     43 Time=  1.68145E+00 Dt=  5.26933E-02 [d] conv_reason: 3
  newton =   1 [      43] linear =     1 [        43] cuts =  0 [   0]
  --> SNES Linear/Non-Linear Iterations = 1 / 1
  --> SNES Residual: 0.277200E-15 0.277200E-15 0.130104E-15
  --> max change:  dcmx=   1.8699E-02  dc/dt=   4.1073E-06 [mol/s]
 Maximum Pore Velocity:   7.5911E+00 [m/d]
 CFL Limiting ( 1.0):   1.0539E-01 ->   5.2693E-02 [d]

== REACTIVE TRANSPORT ==========================================================
  0 2r: 2.60E-03 2x: 0.00E+00 2u: 0.00E+00 ir: 4.10E-04 iu: 0.00E+00 rsn:   0
  1 2r: 2.93E-16 2x: 5.47E+00 2u: 1.18E-01 ir: 9.71E-17 iu: 1.83E-02 rsn: rtol

 Step     44 Time=  1.73414E+00 Dt=  5.26933E-02 [d] conv_reason: 3
  newton =   1 [      44] linear =     1 [        44] cuts =  0 [   0]
  --> SNES Linear/Non-Linear Iterations = 1 / 1
  --> SNES Residual: 0.292770E-15 0.292770E-15 0.971445E-16
  --> max change:  dcmx=   1.8318E-02  dc/dt=   4.0236E-06 [mol/s]
 Maximum Pore Velocity:   7.5911E+00 [m/d]
 CFL Limiting ( 1.0):   1.0539E-01 ->   5.2693E-02 [d]

== REACTIVE TRANSPORT ==========================================================
  0 2r: 2.57E-03 2x: 0.00E+00 2u: 0.00E+00 ir: 4.01E-04 iu: 0.00E+00 rsn:   0
  1 2r: 2.78E-16 2x: 5.54E+00 2u: 1.16E-01 ir: 1.01E-16 iu: 1.80E-02 rsn: rtol

 Step     45 Time=  1.78684E+00 Dt=  5.26933E-02 [d] conv_reason: 3
  newton =   1 [      45] linear =     1 [        45] cuts =  0 [   0]
  --> SNES Linear/Non-Linear Iterations = 1 / 1
  --> SNES Residual: 0.277928E-15 0.277928E-15 0.100614E-15
  --> max change:  dcmx=   1.7960E-02  dc/dt=   3.9449E-06 [mol/s]
 Maximum Pore Velocity:   7.5911E+00 [m/d]
 CFL Limiting ( 1.0):   1.0539E-01 ->   5.2693E-02 [d]

== REACTIVE TRANSPORT ==========================================================
  0 2r: 2.55E-03 2x: 0.00E+00 2u: 0.00E+00 ir: 3.93E-04 iu: 0.00E+00 rsn:   0
  1 2r: 3.69E-16 2x: 5.62E+00 2u: 1.15E-01 ir: 2.01E-16 iu: 1.76E-02 rsn: rtol

 Step     46 Time=  1.83953E+00 Dt=  5.26933E-02 [d] conv_reason: 3
  newton =   1 [      46] linear =     1 [        46] cuts =  0 [   0]
  --> SNES Linear/Non-Linear Iterations = 1 / 1
  --> SNES Residual: 0.368855E-15 0.368855E-15 0.201228E-15
  --> max change:  dcmx=   1.7620E-02  dc/dt=   3.8702E-06 [mol/s]
 Maximum Pore Velocity:   7.5911E+00 [m/d]
 CFL Limiting ( 1.0):   1.0539E-01 ->   5.2693E-02 [d]

== REACTIVE TRANSPORT ==========================================================
  0 2r: 2.52E-03 2x: 0.00E+00 2u: 0.00E+00 ir: 3.86E-04 iu: 0.00E+00 rsn:   0
  1 2r: 3.12E-16 2x: 5.69E+00 2u: 1.14E-01 ir: 2.12E-16 iu: 1.73E-02 rsn: rtol

 Step     47 Time=  1.89222E+00 Dt=  5.26933E-02 [d] conv_reason: 3
  newton =   1 [      47] linear =     1 [        47] cuts =  0 [   0]
  --> SNES Linear/Non-Linear Iterations = 1 / 1
  --> SNES Residual: 0.312108E-15 0.312108E-15 0.211636E-15
  --> max change:  dcmx=   1.7296E-02  dc/dt=   3.7991E-06 [mol/s]
 Maximum Pore Velocity:   7.5911E+00 [m/d]
 CFL Limiting ( 1.0):   1.0539E-01 ->   5.2693E-02 [d]

== REACTIVE TRANSPORT ==========================================================
  0 2r: 2.49E-03 2x: 0.00E+00 2u: 0.00E+00 ir: 3.79E-04 iu: 0.00E+00 rsn:   0
  1 2r: 3.21E-16 2x: 5.76E+00 2u: 1.13E-01 ir: 1.02E-16 iu: 1.70E-02 rsn: rtol

 Step     48 Time=  1.94492E+00 Dt=  5.26933E-02 [d] conv_reason: 3
  newton =   1 [      48] linear =     1 [        48] cuts =  0 [   0]
  --> SNES Linear/Non-Linear Iterations = 1 / 1
  --> SNES Residual: 0.320536E-15 0.320536E-15 0.102349E-15
  --> max change:  dcmx=   1.6988E-02  dc/dt=   3.7315E-06 [mol/s]
 Maximum Pore Velocity:   7.5911E+00 [m/d]
 CFL Limiting ( 1.0):   1.0539E-01 ->   5.2693E-02 [d]

== REACTIVE TRANSPORT ==========================================================
  0 2r: 2.47E-03 2x: 0.00E+00 2u: 0.00E+00 ir: 3.72E-04 iu: 0.00E+00 rsn:   0
  1 2r: 2.55E-16 2x: 5.83E+00 2u: 1.12E-01 ir: 9.37E-17 iu: 1.67E-02 rsn: rtol

 Step     49 Time=  1.99761E+00 Dt=  5.26933E-02 [d] conv_reason: 3
  newton =   1 [      49] linear =     1 [        49] cuts =  0 [   0]
  --> SNES Linear/Non-Linear Iterations = 1 / 1
  --> SNES Residual: 0.255021E-15 0.255021E-15 0.936751E-16
  --> max change:  dcmx=   1.6695E-02  dc/dt=   3.6670E-06 [mol/s]
 Maximum Pore Velocity:   7.5911E+00 [m/d]
 CFL Limiting ( 1.0):   1.0539E-01 ->   5.2693E-02 [d]

== REACTIVE TRANSPORT ==========================================================
  0 2r: 2.44E-03 2x: 0.00E+00 2u: 0.00E+00 ir: 3.66E-04 iu: 0.00E+00 rsn:   0
  1 2r: 2.06E-16 2x: 5.90E+00 2u: 1.11E-01 ir: 5.90E-17 iu: 1.64E-02 rsn: rtol

 Step     50 Time=  2.05030E+00 Dt=  5.26933E-02 [d] conv_reason: 3
  newton =   1 [      50] linear =     1 [        50] cuts =  0 [   0]
  --> SNES Linear/Non-Linear Iterations = 1 / 1
  --> SNES Residual: 0.205867E-15 0.205867E-15 0.589806E-16
  --> max change:  dcmx=   1.6415E-02  dc/dt=   3.6055E-06 [mol/s]
 Maximum Pore Velocity:   7.5911E+00 [m/d]
 CFL Limiting ( 1.0):   1.0539E-01 ->   5.2693E-02 [d]

== REACTIVE TRANSPORT ==========================================================
  0 2r: 2.42E-03 2x: 0.00E+00 2u: 0.00E+00 ir: 3.60E-04 iu: 0.00E+00 rsn:   0
  1 2r: 3.30E-16 2x: 5.97E+00 2u: 1.09E-01 ir: 1.04E-16 iu: 1.61E-02 rsn: rtol

 Step     51 Time=  2.10300E+00 Dt=  5.26933E-02 [d] conv_reason: 3
  newton =   1 [      51] linear =     1 [        51] cuts =  0 [   0]
  --> SNES Linear/Non-Linear Iterations = 1 / 1
  --> SNES Residual: 0.329554E-15 0.329554E-15 0.104083E-15
  --> max change:  dcmx=   1.6147E-02  dc/dt=   3.5467E-06 [mol/s]
 Maximum Pore Velocity:   7.5911E+00 [m/d]
 CFL Limiting ( 1.0):   1.0539E-01 ->   5.2693E-02 [d]

== REACTIVE TRANSPORT ==========================================================
  0 2r: 2.40E-03 2x: 0.00E+00 2u: 0.00E+00 ir: 3.54E-04 iu: 0.00E+00 rsn:   0
  1 2r: 2.47E-16 2x: 6.04E+00 2u: 1.08E-01 ir: 7.29E-17 iu: 1.59E-02 rsn: rtol

 Step     52 Time=  2.15569E+00 Dt=  5.26933E-02 [d] conv_reason: 3
  newton =   1 [      52] linear =     1 [        52] cuts =  0 [   0]
  --> SNES Linear/Non-Linear Iterations = 1 / 1
  --> SNES Residual: 0.247254E-15 0.247254E-15 0.728584E-16
  --> max change:  dcmx=   1.5891E-02  dc/dt=   3.4904E-06 [mol/s]
 Maximum Pore Velocity:   7.5911E+00 [m/d]
 CFL Limiting ( 1.0):   1.0539E-01 ->   5.2693E-02 [d]

== REACTIVE TRANSPORT ==========================================================
  0 2r: 2.38E-03 2x: 0.00E+00 2u: 0.00E+00 ir: 3.48E-04 iu: 0.00E+00 rsn:   0
  1 2r: 2.42E-16 2x: 6.11E+00 2u: 1.08E-01 ir: 7.29E-17 iu: 1.56E-02 rsn: rtol

 Step     53 Time=  2.20838E+00 Dt=  5.26933E-02 [d] conv_reason: 3
  newton =   1 [      53] linear =     1 [        53] cuts =  0 [   0]
  --> SNES Linear/Non-Linear Iterations = 1 / 1
  --> SNES Residual: 0.241704E-15 0.241704E-15 0.728584E-16
  --> max change:  dcmx=   1.5646E-02  dc/dt=   3.4366E-06 [mol/s]
 Maximum Pore Velocity:   7.5911E+00 [m/d]
 CFL Limiting ( 1.0):   1.0539E-01 ->   5.2693E-02 [d]

== REACTIVE TRANSPORT ==========================================================
  0 2r: 2.35E-03 2x: 0.00E+00 2u: 0.00E+00 ir: 3.43E-04 iu: 0.00E+00 rsn:   0
  1 2r: 3.34E-16 2x: 6.17E+00 2u: 1.07E-01 ir: 9.37E-17 iu: 1.54E-02 rsn: rtol

 Step     54 Time=  2.26108E+00 Dt=  5.26933E-02 [d] conv_reason: 3
  newton =   1 [      54] linear =     1 [        54] cuts =  0 [   0]
  --> SNES Linear/Non-Linear Iterations = 1 / 1
  --> SNES Residual: 0.334154E-15 0.334154E-15 0.936751E-16
  --> max change:  dcmx=   1.5411E-02  dc/dt=   3.3851E-06 [mol/s]
 Maximum Pore Velocity:   7.5911E+00 [m/d]
 CFL Limiting ( 1.0):   1.0539E-01 ->   5.2693E-02 [d]

== REACTIVE TRANSPORT ==========================================================
  0 2r: 2.33E-03 2x: 0.00E+00 2u: 0.00E+00 ir: 3.38E-04 iu: 0.00E+00 rsn:   0
  1 2r: 2.99E-16 2x: 6.24E+00 2u: 1.06E-01 ir: 9.71E-17 iu: 1.52E-02 rsn: rtol

 Step     55 Time=  2.31377E+00 Dt=  5.26933E-02 [d] conv_reason: 3
  newton =   1 [      55] linear =     1 [        55] cuts =  0 [   0]
  --> SNES Linear/Non-Linear Iterations = 1 / 1
  --> SNES Residual: 0.298619E-15 0.298619E-15 0.971445E-16
  --> max change:  dcmx=   1.5188E-02  dc/dt=   3.3360E-06 [mol/s]
 Maximum Pore Velocity:   7.5911E+00 [m/d]
 CFL Limiting ( 1.0):   1.0539E-01 ->   5.2693E-02 [d]

== REACTIVE TRANSPORT ==========================================================
  0 2r: 2.31E-03 2x: 0.00E+00 2u: 0.00E+00 ir: 3.33E-04 iu: 0.00E+00 rsn:   0
  1 2r: 3.25E-16 2x: 6.30E+00 2u: 1.02E-01 ir: 1.28E-16 iu: 1.46E-02 rsn: rtol

 Step     56 Time=  2.36529E+00 Dt=  5.15201E-02 [d] conv_reason: 3
  newton =   1 [      56] linear =     1 [        56] cuts =  0 [   0]
  --> SNES Linear/Non-Linear Iterations = 1 / 1
  --> SNES Residual: 0.325125E-15 0.325125E-15 0.128370E-15
  --> max change:  dcmx=   1.4645E-02  dc/dt=   3.2900E-06 [mol/s]
 Maximum Pore Velocity:   7.5911E+00 [m/d]
 CFL Limiting ( 1.0):   1.0304E-01 ->   5.2693E-02 [d]

== RICHARDS FLOW ===============================================================
  0 2r: 4.87E-16 2x: 0.00E+00 2u: 0.00E+00 ir: 1.48E-16 iu: 0.00E+00 rsn:   0
  1 2r: 4.87E-16 2x: 1.26E+06 2u: 6.12E-11 ir: 1.48E-16 iu: 1.44E-11 rsn: stol

 Step     17 Time=  3.36529E+00 Dt=  1.00000E+00 [d] conv_reason: 4
  newton =   1 [      19] linear =     1 [        19] cuts =  0 [   0]
  --> SNES Linear/Non-Linear Iterations = 1 / 1
  --> SNES Residual: 0.486615E-15 0.486615E-17 0.148319E-15
  --> max change: dpmx=   0.0000E+00

== REACTIVE TRANSPORT ==========================================================
  0 2r: 2.29E-03 2x: 0.00E+00 2u: 0.00E+00 ir: 3.28E-04 iu: 0.00E+00 rsn:   0
  1 2r: 3.30E-16 2x: 6.37E+00 2u: 1.04E-01 ir: 8.85E-17 iu: 1.48E-02 rsn: rtol

 Step     57 Time=  2.41798E+00 Dt=  5.26933E-02 [d] conv_reason: 3
  newton =   1 [      57] linear =     1 [        57] cuts =  0 [   0]
  --> SNES Linear/Non-Linear Iterations = 1 / 1
  --> SNES Residual: 0.329989E-15 0.329989E-15 0.884709E-16
  --> max change:  dcmx=   1.4772E-02  dc/dt=   3.2448E-06 [mol/s]
 Maximum Pore Velocity:   7.5911E+00 [m/d]
 CFL Limiting ( 1.0):   1.0539E-01 ->   5.2693E-02 [d]

== REACTIVE TRANSPORT ==========================================================
  0 2r: 2.27E-03 2x: 0.00E+00 2u: 0.00E+00 ir: 3.24E-04 iu: 0.00E+00 rsn:   0
  1 2r: 2.24E-16 2x: 6.43E+00 2u: 1.03E-01 ir: 6.25E-17 iu: 1.46E-02 rsn: rtol

 Step     58 Time=  2.47068E+00 Dt=  5.26933E-02 [d] conv_reason: 3
  newton =   1 [      58] linear =     1 [        58] cuts =  0 [   0]
  --> SNES Linear/Non-Linear Iterations = 1 / 1
  --> SNES Residual: 0.223542E-15 0.223542E-15 0.624500E-16
  --> max change:  dcmx=   1.4575E-02  dc/dt=   3.2013E-06 [mol/s]
 Maximum Pore Velocity:   7.5911E+00 [m/d]
 CFL Limiting ( 1.0):   1.0539E-01 ->   5.2693E-02 [d]

== REACTIVE TRANSPORT ==========================================================
  0 2r: 2.25E-03 2x: 0.00E+00 2u: 0.00E+00 ir: 3.19E-04 iu: 0.00E+00 rsn:   0
  1 2r: 3.61E-16 2x: 6.50E+00 2u: 1.02E-01 ir: 1.01E-16 iu: 1.44E-02 rsn: rtol

 Step     59 Time=  2.52337E+00 Dt=  5.26933E-02 [d] conv_reason: 3
  newton =   1 [      59] linear =     1 [        59] cuts =  0 [   0]
  --> SNES Linear/Non-Linear Iterations = 1 / 1
  --> SNES Residual: 0.361145E-15 0.361145E-15 0.100614E-15
  --> max change:  dcmx=   1.4385E-02  dc/dt=   3.1596E-06 [mol/s]
 Maximum Pore Velocity:   7.5911E+00 [m/d]
 CFL Limiting ( 1.0):   1.0539E-01 ->   5.2693E-02 [d]

== REACTIVE TRANSPORT ==========================================================
  0 2r: 2.23E-03 2x: 0.00E+00 2u: 0.00E+00 ir: 3.15E-04 iu: 0.00E+00 rsn:   0
  1 2r: 2.87E-16 2x: 6.56E+00 2u: 1.01E-01 ir: 7.29E-17 iu: 1.42E-02 rsn: rtol

 Step     60 Time=  2.57606E+00 Dt=  5.26933E-02 [d] conv_reason: 3
  newton =   1 [      60] linear =     1 [        60] cuts =  0 [   0]
  --> SNES Linear/Non-Linear Iterations = 1 / 1
  --> SNES Residual: 0.287455E-15 0.287455E-15 0.728584E-16
  --> max change:  dcmx=   1.4202E-02  dc/dt=   3.1196E-06 [mol/s]
 Maximum Pore Velocity:   7.5911E+00 [m/d]
 CFL Limiting ( 1.0):   1.0539E-01 ->   5.2693E-02 [d]

== REACTIVE TRANSPORT ==========================================================
  0 2r: 2.21E-03 2x: 0.00E+00 2u: 0.00E+00 ir: 3.11E-04 iu: 0.00E+00 rsn:   0
  1 2r: 3.51E-16 2x: 6.62E+00 2u: 1.00E-01 ir: 1.56E-16 iu: 1.40E-02 rsn: rtol

 Step     61 Time=  2.62876E+00 Dt=  5.26933E-02 [d] conv_reason: 3
  newton =   1 [      61] linear =     1 [        61] cuts =  0 [   0]
  --> SNES Linear/Non-Linear Iterations = 1 / 1
  --> SNES Residual: 0.351000E-15 0.351000E-15 0.156125E-15
  --> max change:  dcmx=   1.4027E-02  dc/dt=   3.0811E-06 [mol/s]
 Maximum Pore Velocity:   7.5911E+00 [m/d]
 CFL Limiting ( 1.0):   1.0539E-01 ->   5.2693E-02 [d]

== REACTIVE TRANSPORT ==========================================================
  0 2r: 2.19E-03 2x: 0.00E+00 2u: 0.00E+00 ir: 3.07E-04 iu: 0.00E+00 rsn:   0
  1 2r: 3.36E-16 2x: 6.68E+00 2u: 9.90E-02 ir: 9.71E-17 iu: 1.39E-02 rsn: rtol

 Step     62 Time=  2.68145E+00 Dt=  5.26933E-02 [d] conv_reason: 3
  newton =   1 [      62] linear =     1 [        62] cuts =  0 [   0]
  --> SNES Linear/Non-Linear Iterations = 1 / 1
  --> SNES Residual: 0.336056E-15 0.336056E-15 0.971445E-16
  --> max change:  dcmx=   1.3859E-02  dc/dt=   3.0442E-06 [mol/s]
 Maximum Pore Velocity:   7.5911E+00 [m/d]
 CFL Limiting ( 1.0):   1.0539E-01 ->   5.2693E-02 [d]

== REACTIVE TRANSPORT ==========================================================
  0 2r: 2.17E-03 2x: 0.00E+00 2u: 0.00E+00 ir: 3.04E-04 iu: 0.00E+00 rsn:   0
  1 2r: 2.82E-16 2x: 6.74E+00 2u: 9.81E-02 ir: 7.98E-17 iu: 1.37E-02 rsn: rtol

 Step     63 Time=  2.73414E+00 Dt=  5.26933E-02 [d] conv_reason: 3
  newton =   1 [      63] linear =     1 [        63] cuts =  0 [   0]
  --> SNES Linear/Non-Linear Iterations = 1 / 1
  --> SNES Residual: 0.282450E-15 0.282450E-15 0.797973E-16
  --> max change:  dcmx=   1.3698E-02  dc/dt=   3.0088E-06 [mol/s]
 Maximum Pore Velocity:   7.5911E+00 [m/d]
 CFL Limiting ( 1.0):   1.0539E-01 ->   5.2693E-02 [d]

== REACTIVE TRANSPORT ==========================================================
  0 2r: 2.15E-03 2x: 0.00E+00 2u: 0.00E+00 ir: 3.00E-04 iu: 0.00E+00 rsn:   0
  1 2r: 3.61E-16 2x: 6.80E+00 2u: 9.71E-02 ir: 1.08E-16 iu: 1.35E-02 rsn: rtol

 Step     64 Time=  2.78684E+00 Dt=  5.26933E-02 [d] conv_reason: 3
  newton =   1 [      64] linear =     1 [        64] cuts =  0 [   0]
  --> SNES Linear/Non-Linear Iterations = 1 / 1
  --> SNES Residual: 0.361433E-15 0.361433E-15 0.107553E-15
  --> max change:  dcmx=   1.3545E-02  dc/dt=   2.9751E-06 [mol/s]
 Maximum Pore Velocity:   7.5911E+00 [m/d]
 CFL Limiting ( 1.0):   1.0539E-01 ->   5.2693E-02 [d]

== REACTIVE TRANSPORT ==========================================================
  0 2r: 2.13E-03 2x: 0.00E+00 2u: 0.00E+00 ir: 2.97E-04 iu: 0.00E+00 rsn:   0
  1 2r: 3.88E-16 2x: 6.86E+00 2u: 9.61E-02 ir: 1.11E-16 iu: 1.34E-02 rsn: rtol

 Step     65 Time=  2.83953E+00 Dt=  5.26933E-02 [d] conv_reason: 3
  newton =   1 [      65] linear =     1 [        65] cuts =  0 [   0]
  --> SNES Linear/Non-Linear Iterations = 1 / 1
  --> SNES Residual: 0.388114E-15 0.388114E-15 0.111022E-15
  --> max change:  dcmx=   1.3399E-02  dc/dt=   2.9431E-06 [mol/s]
 Maximum Pore Velocity:   7.5911E+00 [m/d]
 CFL Limiting ( 1.0):   1.0539E-01 ->   5.2693E-02 [d]

== REACTIVE TRANSPORT ==========================================================
  0 2r: 2.11E-03 2x: 0.00E+00 2u: 0.00E+00 ir: 2.93E-04 iu: 0.00E+00 rsn:   0
  1 2r: 2.99E-16 2x: 6.92E+00 2u: 9.51E-02 ir: 8.33E-17 iu: 1.33E-02 rsn: rtol

 Step     66 Time=  2.89222E+00 Dt=  5.26933E-02 [d] conv_reason: 3
  newton =   1 [      66] linear =     1 [        66] cuts =  0 [   0]
  --> SNES Linear/Non-Linear Iterations = 1 / 1
  --> SNES Residual: 0.298646E-15 0.298646E-15 0.832667E-16
  --> max change:  dcmx=   1.3260E-02  dc/dt=   2.9125E-06 [mol/s]
 Maximum Pore Velocity:   7.5911E+00 [m/d]
 CFL Limiting ( 1.0):   1.0539E-01 ->   5.2693E-02 [d]

== REACTIVE TRANSPORT ==========================================================
  0 2r: 2.08E-03 2x: 0.00E+00 2u: 0.00E+00 ir: 2.90E-04 iu: 0.00E+00 rsn:   0
  1 2r: 2.84E-16 2x: 6.98E+00 2u: 9.41E-02 ir: 8.50E-17 iu: 1.31E-02 rsn: rtol

 Step     67 Time=  2.94492E+00 Dt=  5.26933E-02 [d] conv_reason: 3
  newton =   1 [      67] linear =     1 [        67] cuts =  0 [   0]
  --> SNES Linear/Non-Linear Iterations = 1 / 1
  --> SNES Residual: 0.283781E-15 0.283781E-15 0.850015E-16
  --> max change:  dcmx=   1.3127E-02  dc/dt=   2.8832E-06 [mol/s]
 Maximum Pore Velocity:   7.5911E+00 [m/d]
 CFL Limiting ( 1.0):   1.0539E-01 ->   5.2693E-02 [d]

== REACTIVE TRANSPORT ==========================================================
  0 2r: 2.06E-03 2x: 0.00E+00 2u: 0.00E+00 ir: 2.88E-04 iu: 0.00E+00 rsn:   0
  1 2r: 3.51E-16 2x: 7.04E+00 2u: 9.31E-02 ir: 9.71E-17 iu: 1.30E-02 rsn: rtol

 Step     68 Time=  2.99761E+00 Dt=  5.26933E-02 [d] conv_reason: 3
  newton =   1 [      68] linear =     1 [        68] cuts =  0 [   0]
  --> SNES Linear/Non-Linear Iterations = 1 / 1
  --> SNES Residual: 0.350829E-15 0.350829E-15 0.971445E-16
  --> max change:  dcmx=   1.3000E-02  dc/dt=   2.8554E-06 [mol/s]
 Maximum Pore Velocity:   7.5911E+00 [m/d]
 CFL Limiting ( 1.0):   1.0539E-01 ->   5.2693E-02 [d]

== REACTIVE TRANSPORT ==========================================================
  0 2r: 2.04E-03 2x: 0.00E+00 2u: 0.00E+00 ir: 2.85E-04 iu: 0.00E+00 rsn:   0
  1 2r: 3.67E-16 2x: 7.10E+00 2u: 9.20E-02 ir: 1.04E-16 iu: 1.29E-02 rsn: rtol

 Step     69 Time=  3.05030E+00 Dt=  5.26933E-02 [d] conv_reason: 3
  newton =   1 [      69] linear =     1 [        69] cuts =  0 [   0]
  --> SNES Linear/Non-Linear Iterations = 1 / 1
  --> SNES Residual: 0.367395E-15 0.367395E-15 0.104083E-15
  --> max change:  dcmx=   1.2882E-02  dc/dt=   2.8295E-06 [mol/s]
 Maximum Pore Velocity:   7.5911E+00 [m/d]
 CFL Limiting ( 1.0):   1.0539E-01 ->   5.2693E-02 [d]

== REACTIVE TRANSPORT ==========================================================
  0 2r: 2.02E-03 2x: 0.00E+00 2u: 0.00E+00 ir: 2.82E-04 iu: 0.00E+00 rsn:   0
  1 2r: 3.37E-16 2x: 7.16E+00 2u: 9.10E-02 ir: 1.02E-16 iu: 1.28E-02 rsn: rtol

 Step     70 Time=  3.10300E+00 Dt=  5.26933E-02 [d] conv_reason: 3
  newton =   1 [      70] linear =     1 [        70] cuts =  0 [   0]
  --> SNES Linear/Non-Linear Iterations = 1 / 1
  --> SNES Residual: 0.336956E-15 0.336956E-15 0.102349E-15
  --> max change:  dcmx=   1.2771E-02  dc/dt=   2.8051E-06 [mol/s]
 Maximum Pore Velocity:   7.5911E+00 [m/d]
 CFL Limiting ( 1.0):   1.0539E-01 ->   5.2693E-02 [d]

== REACTIVE TRANSPORT ==========================================================
  0 2r: 1.99E-03 2x: 0.00E+00 2u: 0.00E+00 ir: 2.80E-04 iu: 0.00E+00 rsn:   0
  1 2r: 3.79E-16 2x: 7.21E+00 2u: 8.99E-02 ir: 1.08E-16 iu: 1.27E-02 rsn: rtol

 Step     71 Time=  3.15569E+00 Dt=  5.26933E-02 [d] conv_reason: 3
  newton =   1 [      71] linear =     1 [        71] cuts =  0 [   0]
  --> SNES Linear/Non-Linear Iterations = 1 / 1
  --> SNES Residual: 0.379274E-15 0.379274E-15 0.107553E-15
  --> max change:  dcmx=   1.2666E-02  dc/dt=   2.7820E-06 [mol/s]
 Maximum Pore Velocity:   7.5911E+00 [m/d]
 CFL Limiting ( 1.0):   1.0539E-01 ->   5.2693E-02 [d]

== REACTIVE TRANSPORT ==========================================================
  0 2r: 1.97E-03 2x: 0.00E+00 2u: 0.00E+00 ir: 2.77E-04 iu: 0.00E+00 rsn:   0
  1 2r: 3.36E-16 2x: 7.27E+00 2u: 8.88E-02 ir: 9.71E-17 iu: 1.26E-02 rsn: rtol

 Step     72 Time=  3.20838E+00 Dt=  5.26933E-02 [d] conv_reason: 3
  newton =   1 [      72] linear =     1 [        72] cuts =  0 [   0]
  --> SNES Linear/Non-Linear Iterations = 1 / 1
  --> SNES Residual: 0.335890E-15 0.335890E-15 0.971445E-16
  --> max change:  dcmx=   1.2570E-02  dc/dt=   2.7611E-06 [mol/s]
 Maximum Pore Velocity:   7.5911E+00 [m/d]
 CFL Limiting ( 1.0):   1.0539E-01 ->   5.2693E-02 [d]

== REACTIVE TRANSPORT ==========================================================
  0 2r: 1.94E-03 2x: 0.00E+00 2u: 0.00E+00 ir: 2.75E-04 iu: 0.00E+00 rsn:   0
  1 2r: 3.19E-16 2x: 7.32E+00 2u: 8.77E-02 ir: 1.11E-16 iu: 1.25E-02 rsn: rtol

 Step     73 Time=  3.26108E+00 Dt=  5.26933E-02 [d] conv_reason: 3
  newton =   1 [      73] linear =     1 [        73] cuts =  0 [   0]
  --> SNES Linear/Non-Linear Iterations = 1 / 1
  --> SNES Residual: 0.319029E-15 0.319029E-15 0.111022E-15
  --> max change:  dcmx=   1.2482E-02  dc/dt=   2.7416E-06 [mol/s]
 Maximum Pore Velocity:   7.5911E+00 [m/d]
 CFL Limiting ( 1.0):   1.0539E-01 ->   5.2693E-02 [d]

== REACTIVE TRANSPORT ==========================================================
  0 2r: 1.92E-03 2x: 0.00E+00 2u: 0.00E+00 ir: 2.73E-04 iu: 0.00E+00 rsn:   0
  1 2r: 3.26E-16 2x: 7.38E+00 2u: 8.65E-02 ir: 8.33E-17 iu: 1.24E-02 rsn: rtol

 Step     74 Time=  3.31377E+00 Dt=  5.26933E-02 [d] conv_reason: 3
  newton =   1 [      74] linear =     1 [        74] cuts =  0 [   0]
  --> SNES Linear/Non-Linear Iterations = 1 / 1
  --> SNES Residual: 0.325562E-15 0.325562E-15 0.832667E-16
  --> max change:  dcmx=   1.2403E-02  dc/dt=   2.7243E-06 [mol/s]
 Maximum Pore Velocity:   7.5911E+00 [m/d]
 CFL Limiting ( 1.0):   1.0539E-01 ->   5.2693E-02 [d]

== REACTIVE TRANSPORT ==========================================================
  0 2r: 1.90E-03 2x: 0.00E+00 2u: 0.00E+00 ir: 2.72E-04 iu: 0.00E+00 rsn:   0
  1 2r: 3.13E-16 2x: 7.43E+00 2u: 8.35E-02 ir: 8.33E-17 iu: 1.21E-02 rsn: rtol

 Step     75 Time=  3.36529E+00 Dt=  5.15201E-02 [d] conv_reason: 3
  newton =   1 [      75] linear =     1 [        75] cuts =  0 [   0]
  --> SNES Linear/Non-Linear Iterations = 1 / 1
  --> SNES Residual: 0.313049E-15 0.313049E-15 0.832667E-16
  --> max change:  dcmx=   1.2060E-02  dc/dt=   2.7093E-06 [mol/s]
 Maximum Pore Velocity:   7.5911E+00 [m/d]
 CFL Limiting ( 1.0):   1.0304E-01 ->   5.2693E-02 [d]

== RICHARDS FLOW ===============================================================
  0 2r: 4.87E-16 2x: 0.00E+00 2u: 0.00E+00 ir: 1.48E-16 iu: 0.00E+00 rsn:   0
  1 2r: 4.87E-16 2x: 1.26E+06 2u: 6.12E-11 ir: 1.48E-16 iu: 1.44E-11 rsn: stol

 Step     18 Time=  4.36529E+00 Dt=  1.00000E+00 [d] conv_reason: 4
  newton =   1 [      20] linear =     1 [        20] cuts =  0 [   0]
  --> SNES Linear/Non-Linear Iterations = 1 / 1
  --> SNES Residual: 0.486615E-15 0.486615E-17 0.148319E-15
  --> max change: dpmx=   0.0000E+00

== REACTIVE TRANSPORT ==========================================================
  0 2r: 1.87E-03 2x: 0.00E+00 2u: 0.00E+00 ir: 2.70E-04 iu: 0.00E+00 rsn:   0
  1 2r: 3.10E-16 2x: 7.48E+00 2u: 8.43E-02 ir: 9.02E-17 iu: 1.23E-02 rsn: rtol

 Step     76 Time=  3.41798E+00 Dt=  5.26933E-02 [d] conv_reason: 3
  newton =   1 [      76] linear =     1 [        76] cuts =  0 [   0]
  --> SNES Linear/Non-Linear Iterations = 1 / 1
  --> SNES Residual: 0.309750E-15 0.309750E-15 0.902056E-16
  --> max change:  dcmx=   1.2274E-02  dc/dt=   2.6960E-06 [mol/s]
 Maximum Pore Velocity:   7.5911E+00 [m/d]
 CFL Limiting ( 1.0):   1.0539E-01 ->   5.2693E-02 [d]

== REACTIVE TRANSPORT ==========================================================
  0 2r: 1.85E-03 2x: 0.00E+00 2u: 0.00E+00 ir: 2.69E-04 iu: 0.00E+00 rsn:   0
  1 2r: 3.67E-16 2x: 7.54E+00 2u: 8.31E-02 ir: 9.02E-17 iu: 1.22E-02 rsn: rtol

 Step     77 Time=  3.47068E+00 Dt=  5.26933E-02 [d] conv_reason: 3
  newton =   1 [      77] linear =     1 [        77] cuts =  0 [   0]
  --> SNES Linear/Non-Linear Iterations = 1 / 1
  --> SNES Residual: 0.367409E-15 0.367409E-15 0.902056E-16
  --> max change:  dcmx=   1.2225E-02  dc/dt=   2.6852E-06 [mol/s]
 Maximum Pore Velocity:   7.5911E+00 [m/d]
 CFL Limiting ( 1.0):   1.0539E-01 ->   5.2693E-02 [d]

== REACTIVE TRANSPORT ==========================================================
  0 2r: 1.82E-03 2x: 0.00E+00 2u: 0.00E+00 ir: 2.68E-04 iu: 0.00E+00 rsn:   0
  1 2r: 3.98E-16 2x: 7.59E+00 2u: 8.19E-02 ir: 9.02E-17 iu: 1.22E-02 rsn: rtol

 Step     78 Time=  3.52337E+00 Dt=  5.26933E-02 [d] conv_reason: 3
  newton =   1 [      78] linear =     1 [        78] cuts =  0 [   0]
  --> SNES Linear/Non-Linear Iterations = 1 / 1
  --> SNES Residual: 0.397952E-15 0.397952E-15 0.902056E-16
  --> max change:  dcmx=   1.2188E-02  dc/dt=   2.6772E-06 [mol/s]
 Maximum Pore Velocity:   7.5911E+00 [m/d]
 CFL Limiting ( 1.0):   1.0539E-01 ->   5.2693E-02 [d]

== REACTIVE TRANSPORT ==========================================================
  0 2r: 1.79E-03 2x: 0.00E+00 2u: 0.00E+00 ir: 2.67E-04 iu: 0.00E+00 rsn:   0
  1 2r: 4.33E-16 2x: 7.64E+00 2u: 8.07E-02 ir: 1.32E-16 iu: 1.22E-02 rsn: rtol

 Step     79 Time=  3.57606E+00 Dt=  5.26933E-02 [d] conv_reason: 3
  newton =   1 [      79] linear =     1 [        79] cuts =  0 [   0]
  --> SNES Linear/Non-Linear Iterations = 1 / 1
  --> SNES Residual: 0.432838E-15 0.432838E-15 0.131839E-15
  --> max change:  dcmx=   1.2167E-02  dc/dt=   2.6725E-06 [mol/s]
 Maximum Pore Velocity:   7.5911E+00 [m/d]
 CFL Limiting ( 1.0):   1.0539E-01 ->   5.2693E-02 [d]

== REACTIVE TRANSPORT ==========================================================
  0 2r: 1.77E-03 2x: 0.00E+00 2u: 0.00E+00 ir: 2.66E-04 iu: 0.00E+00 rsn:   0
  1 2r: 3.42E-16 2x: 7.69E+00 2u: 7.95E-02 ir: 1.01E-16 iu: 1.22E-02 rsn: rtol

 Step     80 Time=  3.62876E+00 Dt=  5.26933E-02 [d] conv_reason: 3
  newton =   1 [      80] linear =     1 [        80] cuts =  0 [   0]
  --> SNES Linear/Non-Linear Iterations = 1 / 1
  --> SNES Residual: 0.341527E-15 0.341527E-15 0.100614E-15
  --> max change:  dcmx=   1.2156E-02  dc/dt=   2.6700E-06 [mol/s]
 Maximum Pore Velocity:   7.5911E+00 [m/d]
 CFL Limiting ( 1.0):   1.0539E-01 ->   5.2693E-02 [d]

== REACTIVE TRANSPORT ==========================================================
  0 2r: 1.74E-03 2x: 0.00E+00 2u: 0.00E+00 ir: 2.66E-04 iu: 0.00E+00 rsn:   0
  1 2r: 3.80E-16 2x: 7.74E+00 2u: 7.83E-02 ir: 1.42E-16 iu: 1.21E-02 rsn: rtol

 Step     81 Time=  3.68145E+00 Dt=  5.26933E-02 [d] conv_reason: 3
  newton =   1 [      81] linear =     1 [        81] cuts =  0 [   0]
  --> SNES Linear/Non-Linear Iterations = 1 / 1
  --> SNES Residual: 0.380221E-15 0.380221E-15 0.142247E-15
  --> max change:  dcmx=   1.2133E-02  dc/dt=   2.6650E-06 [mol/s]
 Maximum Pore Velocity:   7.5911E+00 [m/d]
 CFL Limiting ( 1.0):   1.0539E-01 ->   5.2693E-02 [d]

== REACTIVE TRANSPORT ==========================================================
  0 2r: 1.72E-03 2x: 0.00E+00 2u: 0.00E+00 ir: 2.66E-04 iu: 0.00E+00 rsn:   0
  1 2r: 3.83E-16 2x: 7.79E+00 2u: 7.71E-02 ir: 1.04E-16 iu: 1.21E-02 rsn: rtol

 Step     82 Time=  3.73414E+00 Dt=  5.26933E-02 [d] conv_reason: 3
  newton =   1 [      82] linear =     1 [        82] cuts =  0 [   0]
  --> SNES Linear/Non-Linear Iterations = 1 / 1
  --> SNES Residual: 0.383370E-15 0.383370E-15 0.104083E-15
  --> max change:  dcmx=   1.2098E-02  dc/dt=   2.6572E-06 [mol/s]
 Maximum Pore Velocity:   7.5911E+00 [m/d]
 CFL Limiting ( 1.0):   1.0539E-01 ->   5.2693E-02 [d]

== REACTIVE TRANSPORT ==========================================================
  0 2r: 1.69E-03 2x: 0.00E+00 2u: 0.00E+00 ir: 2.65E-04 iu: 0.00E+00 rsn:   0
  1 2r: 4.25E-16 2x: 7.84E+00 2u: 7.59E-02 ir: 1.04E-16 iu: 1.21E-02 rsn: rtol

 Step     83 Time=  3.78684E+00 Dt=  5.26933E-02 [d] conv_reason: 3
  newton =   1 [      83] linear =     1 [        83] cuts =  0 [   0]
  --> SNES Linear/Non-Linear Iterations = 1 / 1
  --> SNES Residual: 0.424919E-15 0.424919E-15 0.104083E-15
  --> max change:  dcmx=   1.2051E-02  dc/dt=   2.6470E-06 [mol/s]
 Maximum Pore Velocity:   7.5911E+00 [m/d]
 CFL Limiting ( 1.0):   1.0539E-01 ->   5.2693E-02 [d]

== REACTIVE TRANSPORT ==========================================================
  0 2r: 1.66E-03 2x: 0.00E+00 2u: 0.00E+00 ir: 2.64E-04 iu: 0.00E+00 rsn:   0
  1 2r: 4.55E-16 2x: 7.89E+00 2u: 7.46E-02 ir: 1.32E-16 iu: 1.20E-02 rsn: rtol

 Step     84 Time=  3.83953E+00 Dt=  5.26933E-02 [d] conv_reason: 3
  newton =   1 [      84] linear =     1 [        84] cuts =  0 [   0]
  --> SNES Linear/Non-Linear Iterations = 1 / 1
  --> SNES Residual: 0.454852E-15 0.454852E-15 0.131839E-15
  --> max change:  dcmx=   1.1993E-02  dc/dt=   2.6343E-06 [mol/s]
 Maximum Pore Velocity:   7.5911E+00 [m/d]
 CFL Limiting ( 1.0):   1.0539E-01 ->   5.2693E-02 [d]

== REACTIVE TRANSPORT ==========================================================
  0 2r: 1.63E-03 2x: 0.00E+00 2u: 0.00E+00 ir: 2.63E-04 iu: 0.00E+00 rsn:   0
  1 2r: 3.96E-16 2x: 7.94E+00 2u: 7.34E-02 ir: 9.37E-17 iu: 1.19E-02 rsn: rtol

 Step     85 Time=  3.89222E+00 Dt=  5.26933E-02 [d] conv_reason: 3
  newton =   1 [      85] linear =     1 [        85] cuts =  0 [   0]
  --> SNES Linear/Non-Linear Iterations = 1 / 1
  --> SNES Residual: 0.395570E-15 0.395570E-15 0.936751E-16
  --> max change:  dcmx=   1.1926E-02  dc/dt=   2.6194E-06 [mol/s]
 Maximum Pore Velocity:   7.5911E+00 [m/d]
 CFL Limiting ( 1.0):   1.0539E-01 ->   5.2693E-02 [d]

== REACTIVE TRANSPORT ==========================================================
  0 2r: 1.61E-03 2x: 0.00E+00 2u: 0.00E+00 ir: 2.61E-04 iu: 0.00E+00 rsn:   0
  1 2r: 3.69E-16 2x: 7.98E+00 2u: 7.22E-02 ir: 9.71E-17 iu: 1.18E-02 rsn: rtol

 Step     86 Time=  3.94492E+00 Dt=  5.26933E-02 [d] conv_reason: 3
  newton =   1 [      86] linear =     1 [        86] cuts =  0 [   0]
  --> SNES Linear/Non-Linear Iterations = 1 / 1
  --> SNES Residual: 0.369186E-15 0.369186E-15 0.971445E-16
  --> max change:  dcmx=   1.1848E-02  dc/dt=   2.6024E-06 [mol/s]
 Maximum Pore Velocity:   7.5911E+00 [m/d]
 CFL Limiting ( 1.0):   1.0539E-01 ->   5.2693E-02 [d]

== REACTIVE TRANSPORT ==========================================================
  0 2r: 1.58E-03 2x: 0.00E+00 2u: 0.00E+00 ir: 2.60E-04 iu: 0.00E+00 rsn:   0
  1 2r: 4.17E-16 2x: 8.03E+00 2u: 7.09E-02 ir: 1.14E-16 iu: 1.18E-02 rsn: rtol

 Step     87 Time=  3.99761E+00 Dt=  5.26933E-02 [d] conv_reason: 3
  newton =   1 [      87] linear =     1 [        87] cuts =  0 [   0]
  --> SNES Linear/Non-Linear Iterations = 1 / 1
  --> SNES Residual: 0.416742E-15 0.416742E-15 0.114492E-15
  --> max change:  dcmx=   1.1762E-02  dc/dt=   2.5834E-06 [mol/s]
 Maximum Pore Velocity:   7.5911E+00 [m/d]
 CFL Limiting ( 1.0):   1.0539E-01 ->   5.2693E-02 [d]

== REACTIVE TRANSPORT ==========================================================
  0 2r: 1.55E-03 2x: 0.00E+00 2u: 0.00E+00 ir: 2.58E-04 iu: 0.00E+00 rsn:   0
  1 2r: 3.90E-16 2x: 8.07E+00 2u: 6.97E-02 ir: 1.28E-16 iu: 1.17E-02 rsn: rtol

 Step     88 Time=  4.05030E+00 Dt=  5.26933E-02 [d] conv_reason: 3
  newton =   1 [      88] linear =     1 [        88] cuts =  0 [   0]
  --> SNES Linear/Non-Linear Iterations = 1 / 1
  --> SNES Residual: 0.389510E-15 0.389510E-15 0.128370E-15
  --> max change:  dcmx=   1.1667E-02  dc/dt=   2.5626E-06 [mol/s]
 Maximum Pore Velocity:   7.5911E+00 [m/d]
 CFL Limiting ( 1.0):   1.0539E-01 ->   5.2693E-02 [d]

== REACTIVE TRANSPORT ==========================================================
  0 2r: 1.53E-03 2x: 0.00E+00 2u: 0.00E+00 ir: 2.56E-04 iu: 0.00E+00 rsn:   0
  1 2r: 3.35E-16 2x: 8.12E+00 2u: 6.84E-02 ir: 1.08E-16 iu: 1.16E-02 rsn: rtol

 Step     89 Time=  4.10300E+00 Dt=  5.26933E-02 [d] conv_reason: 3
  newton =   1 [      89] linear =     1 [        89] cuts =  0 [   0]
  --> SNES Linear/Non-Linear Iterations = 1 / 1
  --> SNES Residual: 0.334716E-15 0.334716E-15 0.107553E-15
  --> max change:  dcmx=   1.1564E-02  dc/dt=   2.5400E-06 [mol/s]
 Maximum Pore Velocity:   7.5911E+00 [m/d]
 CFL Limiting ( 1.0):   1.0539E-01 ->   5.2693E-02 [d]

== REACTIVE TRANSPORT ==========================================================
  0 2r: 1.50E-03 2x: 0.00E+00 2u: 0.00E+00 ir: 2.53E-04 iu: 0.00E+00 rsn:   0
  1 2r: 3.86E-16 2x: 8.16E+00 2u: 6.72E-02 ir: 1.11E-16 iu: 1.15E-02 rsn: rtol

 Step     90 Time=  4.15569E+00 Dt=  5.26933E-02 [d] conv_reason: 3
  newton =   1 [      90] linear =     1 [        90] cuts =  0 [   0]
  --> SNES Linear/Non-Linear Iterations = 1 / 1
  --> SNES Residual: 0.386427E-15 0.386427E-15 0.111022E-15
  --> max change:  dcmx=   1.1454E-02  dc/dt=   2.5159E-06 [mol/s]
 Maximum Pore Velocity:   7.5911E+00 [m/d]
 CFL Limiting ( 1.0):   1.0539E-01 ->   5.2693E-02 [d]

== REACTIVE TRANSPORT ==========================================================
  0 2r: 1.47E-03 2x: 0.00E+00 2u: 0.00E+00 ir: 2.51E-04 iu: 0.00E+00 rsn:   0
  1 2r: 4.35E-16 2x: 8.20E+00 2u: 6.60E-02 ir: 1.18E-16 iu: 1.13E-02 rsn: rtol

 Step     91 Time=  4.20838E+00 Dt=  5.26933E-02 [d] conv_reason: 3
  newton =   1 [      91] linear =     1 [        91] cuts =  0 [   0]
  --> SNES Linear/Non-Linear Iterations = 1 / 1
  --> SNES Residual: 0.435056E-15 0.435056E-15 0.117961E-15
  --> max change:  dcmx=   1.1337E-02  dc/dt=   2.4902E-06 [mol/s]
 Maximum Pore Velocity:   7.5911E+00 [m/d]
 CFL Limiting ( 1.0):   1.0539E-01 ->   5.2693E-02 [d]

== REACTIVE TRANSPORT ==========================================================
  0 2r: 1.45E-03 2x: 0.00E+00 2u: 0.00E+00 ir: 2.48E-04 iu: 0.00E+00 rsn:   0
  1 2r: 3.91E-16 2x: 8.25E+00 2u: 6.47E-02 ir: 1.11E-16 iu: 1.12E-02 rsn: rtol

 Step     92 Time=  4.26108E+00 Dt=  5.26933E-02 [d] conv_reason: 3
  newton =   1 [      92] linear =     1 [        92] cuts =  0 [   0]
  --> SNES Linear/Non-Linear Iterations = 1 / 1
  --> SNES Residual: 0.390660E-15 0.390660E-15 0.111022E-15
  --> max change:  dcmx=   1.1214E-02  dc/dt=   2.4632E-06 [mol/s]
 Maximum Pore Velocity:   7.5911E+00 [m/d]
 CFL Limiting ( 1.0):   1.0539E-01 ->   5.2693E-02 [d]

== REACTIVE TRANSPORT ==========================================================
  0 2r: 1.42E-03 2x: 0.00E+00 2u: 0.00E+00 ir: 2.46E-04 iu: 0.00E+00 rsn:   0
  1 2r: 3.74E-16 2x: 8.29E+00 2u: 6.35E-02 ir: 9.37E-17 iu: 1.11E-02 rsn: rtol

 Step     93 Time=  4.31377E+00 Dt=  5.26933E-02 [d] conv_reason: 3
  newton =   1 [      93] linear =     1 [        93] cuts =  0 [   0]
  --> SNES Linear/Non-Linear Iterations = 1 / 1
  --> SNES Residual: 0.373908E-15 0.373908E-15 0.936751E-16
  --> max change:  dcmx=   1.1086E-02  dc/dt=   2.4350E-06 [mol/s]
 Maximum Pore Velocity:   7.5911E+00 [m/d]
 CFL Limiting ( 1.0):   1.0539E-01 ->   5.2693E-02 [d]

== REACTIVE TRANSPORT ==========================================================
  0 2r: 1.39E-03 2x: 0.00E+00 2u: 0.00E+00 ir: 2.43E-04 iu: 0.00E+00 rsn:   0
  1 2r: 4.16E-16 2x: 8.33E+00 2u: 6.09E-02 ir: 1.14E-16 iu: 1.07E-02 rsn: rtol

 Step     94 Time=  4.36529E+00 Dt=  5.15201E-02 [d] conv_reason: 3
  newton =   1 [      94] linear =     1 [        94] cuts =  0 [   0]
  --> SNES Linear/Non-Linear Iterations = 1 / 1
  --> SNES Residual: 0.415831E-15 0.415831E-15 0.114492E-15
  --> max change:  dcmx=   1.0711E-02  dc/dt=   2.4063E-06 [mol/s]
 Maximum Pore Velocity:   7.5911E+00 [m/d]
 CFL Limiting ( 1.0):   1.0304E-01 ->   5.2693E-02 [d]

== RICHARDS FLOW ===============================================================
  0 2r: 4.87E-16 2x: 0.00E+00 2u: 0.00E+00 ir: 1.48E-16 iu: 0.00E+00 rsn:   0
  1 2r: 4.87E-16 2x: 1.26E+06 2u: 6.12E-11 ir: 1.48E-16 iu: 1.44E-11 rsn: stol

 Step     19 Time=  5.36529E+00 Dt=  1.00000E+00 [d] conv_reason: 4
  newton =   1 [      21] linear =     1 [        21] cuts =  0 [   0]
[...]

== REACTIVE TRANSPORT ==========================================================
  0 2r: 1.87E-04 2x: 0.00E+00 2u: 0.00E+00 ir: 3.92E-05 iu: 0.00E+00 rsn:   0
  1 2r: 3.79E-16 2x: 9.83E+00 2u: 8.29E-03 ir: 1.18E-16 iu: 1.74E-03 rsn: rtol

 Step    173 Time=  8.52337E+00 Dt=  5.26933E-02 [d] conv_reason: 3
  newton =   1 [     173] linear =     1 [       173] cuts =  0 [   0]
  --> SNES Linear/Non-Linear Iterations = 1 / 1
  --> SNES Residual: 0.379472E-15 0.379472E-15 0.117961E-15
  --> max change:  dcmx=   1.7411E-03  dc/dt=   3.8242E-07 [mol/s]
 Maximum Pore Velocity:   7.5911E+00 [m/d]
 CFL Limiting ( 1.0):   1.0539E-01 ->   5.2693E-02 [d]

== REACTIVE TRANSPORT ==========================================================
  0 2r: 1.82E-04 2x: 0.00E+00 2u: 0.00E+00 ir: 3.81E-05 iu: 0.00E+00 rsn:   0
  1 2r: 4.13E-16 2x: 9.84E+00 2u: 8.05E-03 ir: 1.42E-16 iu: 1.69E-03 rsn: rtol

 Step    174 Time=  8.57606E+00 Dt=  5.26933E-02 [d] conv_reason: 3
  newton =   1 [     174] linear =     1 [       174] cuts =  0 [   0]
  --> SNES Linear/Non-Linear Iterations = 1 / 1
  --> SNES Residual: 0.413068E-15 0.413068E-15 0.142247E-15
  --> max change:  dcmx=   1.6927E-03  dc/dt=   3.7179E-07 [mol/s]
 Maximum Pore Velocity:   7.5911E+00 [m/d]
 CFL Limiting ( 1.0):   1.0539E-01 ->   5.2693E-02 [d]

== REACTIVE TRANSPORT ==========================================================
  0 2r: 1.76E-04 2x: 0.00E+00 2u: 0.00E+00 ir: 3.71E-05 iu: 0.00E+00 rsn:   0
  1 2r: 4.35E-16 2x: 9.84E+00 2u: 7.82E-03 ir: 1.25E-16 iu: 1.65E-03 rsn: rtol

 Step    175 Time=  8.62876E+00 Dt=  5.26933E-02 [d] conv_reason: 3
  newton =   1 [     175] linear =     1 [       175] cuts =  0 [   0]
  --> SNES Linear/Non-Linear Iterations = 1 / 1
  --> SNES Residual: 0.435066E-15 0.435066E-15 0.124900E-15
  --> max change:  dcmx=   1.6455E-03  dc/dt=   3.6144E-07 [mol/s]
 Maximum Pore Velocity:   7.5911E+00 [m/d]
 CFL Limiting ( 1.0):   1.0539E-01 ->   5.2693E-02 [d]

== REACTIVE TRANSPORT ==========================================================
  0 2r: 1.71E-04 2x: 0.00E+00 2u: 0.00E+00 ir: 3.60E-05 iu: 0.00E+00 rsn:   0
  1 2r: 4.73E-16 2x: 9.85E+00 2u: 7.60E-03 ir: 1.11E-16 iu: 1.60E-03 rsn: rtol

 Step    176 Time=  8.68145E+00 Dt=  5.26933E-02 [d] conv_reason: 3
  newton =   1 [     176] linear =     1 [       176] cuts =  0 [   0]
  --> SNES Linear/Non-Linear Iterations = 1 / 1
  --> SNES Residual: 0.472533E-15 0.472533E-15 0.111022E-15
  --> max change:  dcmx=   1.5996E-03  dc/dt=   3.5136E-07 [mol/s]
 Maximum Pore Velocity:   7.5911E+00 [m/d]
 CFL Limiting ( 1.0):   1.0539E-01 ->   5.2693E-02 [d]

== REACTIVE TRANSPORT ==========================================================
  0 2r: 1.67E-04 2x: 0.00E+00 2u: 0.00E+00 ir: 3.50E-05 iu: 0.00E+00 rsn:   0
  1 2r: 4.43E-16 2x: 9.85E+00 2u: 7.39E-03 ir: 1.04E-16 iu: 1.55E-03 rsn: rtol

 Step    177 Time=  8.73414E+00 Dt=  5.26933E-02 [d] conv_reason: 3
  newton =   1 [     177] linear =     1 [       177] cuts =  0 [   0]
  --> SNES Linear/Non-Linear Iterations = 1 / 1
  --> SNES Residual: 0.443492E-15 0.443492E-15 0.104083E-15
  --> max change:  dcmx=   1.5549E-03  dc/dt=   3.4154E-07 [mol/s]
 Maximum Pore Velocity:   7.5911E+00 [m/d]
 CFL Limiting ( 1.0):   1.0539E-01 ->   5.2693E-02 [d]

== REACTIVE TRANSPORT ==========================================================
  0 2r: 1.62E-04 2x: 0.00E+00 2u: 0.00E+00 ir: 3.41E-05 iu: 0.00E+00 rsn:   0
  1 2r: 4.36E-16 2x: 9.86E+00 2u: 7.18E-03 ir: 1.11E-16 iu: 1.51E-03 rsn: rtol

 Step    178 Time=  8.78684E+00 Dt=  5.26933E-02 [d] conv_reason: 3
  newton =   1 [     178] linear =     1 [       178] cuts =  0 [   0]
  --> SNES Linear/Non-Linear Iterations = 1 / 1
  --> SNES Residual: 0.435951E-15 0.435951E-15 0.111022E-15
  --> max change:  dcmx=   1.5114E-03  dc/dt=   3.3199E-07 [mol/s]
 Maximum Pore Velocity:   7.5911E+00 [m/d]
 CFL Limiting ( 1.0):   1.0539E-01 ->   5.2693E-02 [d]

== REACTIVE TRANSPORT ==========================================================
  0 2r: 1.57E-04 2x: 0.00E+00 2u: 0.00E+00 ir: 3.31E-05 iu: 0.00E+00 rsn:   0
  1 2r: 4.24E-16 2x: 9.86E+00 2u: 6.97E-03 ir: 1.04E-16 iu: 1.47E-03 rsn: rtol

 Step    179 Time=  8.83953E+00 Dt=  5.26933E-02 [d] conv_reason: 3
  newton =   1 [     179] linear =     1 [       179] cuts =  0 [   0]
  --> SNES Linear/Non-Linear Iterations = 1 / 1
  --> SNES Residual: 0.423884E-15 0.423884E-15 0.104083E-15
  --> max change:  dcmx=   1.4691E-03  dc/dt=   3.2268E-07 [mol/s]
 Maximum Pore Velocity:   7.5911E+00 [m/d]
 CFL Limiting ( 1.0):   1.0539E-01 ->   5.2693E-02 [d]

== REACTIVE TRANSPORT ==========================================================
  0 2r: 1.53E-04 2x: 0.00E+00 2u: 0.00E+00 ir: 3.22E-05 iu: 0.00E+00 rsn:   0
  1 2r: 4.67E-16 2x: 9.87E+00 2u: 6.77E-03 ir: 1.14E-16 iu: 1.43E-03 rsn: rtol

 Step    180 Time=  8.89222E+00 Dt=  5.26933E-02 [d] conv_reason: 3
  newton =   1 [     180] linear =     1 [       180] cuts =  0 [   0]
  --> SNES Linear/Non-Linear Iterations = 1 / 1
  --> SNES Residual: 0.466534E-15 0.466534E-15 0.114492E-15
  --> max change:  dcmx=   1.4279E-03  dc/dt=   3.1363E-07 [mol/s]
 Maximum Pore Velocity:   7.5911E+00 [m/d]
 CFL Limiting ( 1.0):   1.0539E-01 ->   5.2693E-02 [d]

== REACTIVE TRANSPORT ==========================================================
  0 2r: 1.48E-04 2x: 0.00E+00 2u: 0.00E+00 ir: 3.13E-05 iu: 0.00E+00 rsn:   0
  1 2r: 4.31E-16 2x: 9.87E+00 2u: 6.58E-03 ir: 1.08E-16 iu: 1.39E-03 rsn: rtol

 Step    181 Time=  8.94492E+00 Dt=  5.26933E-02 [d] conv_reason: 3
  newton =   1 [     181] linear =     1 [       181] cuts =  0 [   0]
  --> SNES Linear/Non-Linear Iterations = 1 / 1
  --> SNES Residual: 0.430882E-15 0.430882E-15 0.107553E-15
  --> max change:  dcmx=   1.3877E-03  dc/dt=   3.0481E-07 [mol/s]
 Maximum Pore Velocity:   7.5911E+00 [m/d]
 CFL Limiting ( 1.0):   1.0539E-01 ->   5.2693E-02 [d]

== REACTIVE TRANSPORT ==========================================================
  0 2r: 1.44E-04 2x: 0.00E+00 2u: 0.00E+00 ir: 3.04E-05 iu: 0.00E+00 rsn:   0
  1 2r: 4.05E-16 2x: 9.88E+00 2u: 6.39E-03 ir: 1.32E-16 iu: 1.35E-03 rsn: rtol

 Step    182 Time=  8.99761E+00 Dt=  5.26933E-02 [d] conv_reason: 3
  newton =   1 [     182] linear =     1 [       182] cuts =  0 [   0]
  --> SNES Linear/Non-Linear Iterations = 1 / 1
  --> SNES Residual: 0.404856E-15 0.404856E-15 0.131839E-15
  --> max change:  dcmx=   1.3487E-03  dc/dt=   2.9624E-07 [mol/s]
 Maximum Pore Velocity:   7.5911E+00 [m/d]
 CFL Limiting ( 1.0):   1.0539E-01 ->   5.2693E-02 [d]

== REACTIVE TRANSPORT ==========================================================
  0 2r: 1.40E-04 2x: 0.00E+00 2u: 0.00E+00 ir: 2.95E-05 iu: 0.00E+00 rsn:   0
  1 2r: 4.31E-16 2x: 9.88E+00 2u: 6.21E-03 ir: 1.01E-16 iu: 1.31E-03 rsn: rtol

 Step    183 Time=  9.05030E+00 Dt=  5.26933E-02 [d] conv_reason: 3
  newton =   1 [     183] linear =     1 [       183] cuts =  0 [   0]
  --> SNES Linear/Non-Linear Iterations = 1 / 1
  --> SNES Residual: 0.431120E-15 0.431120E-15 0.100614E-15
  --> max change:  dcmx=   1.3107E-03  dc/dt=   2.8789E-07 [mol/s]
 Maximum Pore Velocity:   7.5911E+00 [m/d]
 CFL Limiting ( 1.0):   1.0539E-01 ->   5.2693E-02 [d]

== REACTIVE TRANSPORT ==========================================================
  0 2r: 1.36E-04 2x: 0.00E+00 2u: 0.00E+00 ir: 2.87E-05 iu: 0.00E+00 rsn:   0
  1 2r: 4.51E-16 2x: 9.89E+00 2u: 6.03E-03 ir: 1.25E-16 iu: 1.27E-03 rsn: rtol

 Step    184 Time=  9.10300E+00 Dt=  5.26933E-02 [d] conv_reason: 3
  newton =   1 [     184] linear =     1 [       184] cuts =  0 [   0]
  --> SNES Linear/Non-Linear Iterations = 1 / 1
  --> SNES Residual: 0.450988E-15 0.450988E-15 0.124900E-15
  --> max change:  dcmx=   1.2737E-03  dc/dt=   2.7977E-07 [mol/s]
 Maximum Pore Velocity:   7.5911E+00 [m/d]
 CFL Limiting ( 1.0):   1.0539E-01 ->   5.2693E-02 [d]

== REACTIVE TRANSPORT ==========================================================
  0 2r: 1.32E-04 2x: 0.00E+00 2u: 0.00E+00 ir: 2.79E-05 iu: 0.00E+00 rsn:   0
  1 2r: 4.15E-16 2x: 9.89E+00 2u: 5.86E-03 ir: 1.18E-16 iu: 1.24E-03 rsn: rtol

 Step    185 Time=  9.15569E+00 Dt=  5.26933E-02 [d] conv_reason: 3
  newton =   1 [     185] linear =     1 [       185] cuts =  0 [   0]
  --> SNES Linear/Non-Linear Iterations = 1 / 1
  --> SNES Residual: 0.415031E-15 0.415031E-15 0.117961E-15
  --> max change:  dcmx=   1.2377E-03  dc/dt=   2.7186E-07 [mol/s]
 Maximum Pore Velocity:   7.5911E+00 [m/d]
 CFL Limiting ( 1.0):   1.0539E-01 ->   5.2693E-02 [d]

== REACTIVE TRANSPORT ==========================================================
  0 2r: 1.28E-04 2x: 0.00E+00 2u: 0.00E+00 ir: 2.71E-05 iu: 0.00E+00 rsn:   0
  1 2r: 4.17E-16 2x: 9.89E+00 2u: 5.69E-03 ir: 1.18E-16 iu: 1.20E-03 rsn: rtol

 Step    186 Time=  9.20838E+00 Dt=  5.26933E-02 [d] conv_reason: 3
  newton =   1 [     186] linear =     1 [       186] cuts =  0 [   0]
  --> SNES Linear/Non-Linear Iterations = 1 / 1
  --> SNES Residual: 0.417243E-15 0.417243E-15 0.117961E-15
  --> max change:  dcmx=   1.2027E-03  dc/dt=   2.6417E-07 [mol/s]
 Maximum Pore Velocity:   7.5911E+00 [m/d]
 CFL Limiting ( 1.0):   1.0539E-01 ->   5.2693E-02 [d]

== REACTIVE TRANSPORT ==========================================================
  0 2r: 1.25E-04 2x: 0.00E+00 2u: 0.00E+00 ir: 2.63E-05 iu: 0.00E+00 rsn:   0
  1 2r: 4.55E-16 2x: 9.90E+00 2u: 5.53E-03 ir: 1.18E-16 iu: 1.17E-03 rsn: rtol

 Step    187 Time=  9.26108E+00 Dt=  5.26933E-02 [d] conv_reason: 3
  newton =   1 [     187] linear =     1 [       187] cuts =  0 [   0]
  --> SNES Linear/Non-Linear Iterations = 1 / 1
  --> SNES Residual: 0.454577E-15 0.454577E-15 0.117961E-15
  --> max change:  dcmx=   1.1686E-03  dc/dt=   2.5669E-07 [mol/s]
 Maximum Pore Velocity:   7.5911E+00 [m/d]
 CFL Limiting ( 1.0):   1.0539E-01 ->   5.2693E-02 [d]

== REACTIVE TRANSPORT ==========================================================
  0 2r: 1.21E-04 2x: 0.00E+00 2u: 0.00E+00 ir: 2.56E-05 iu: 0.00E+00 rsn:   0
  1 2r: 4.21E-16 2x: 9.90E+00 2u: 5.37E-03 ir: 9.71E-17 iu: 1.14E-03 rsn: rtol

 Step    188 Time=  9.31377E+00 Dt=  5.26933E-02 [d] conv_reason: 3
  newton =   1 [     188] linear =     1 [       188] cuts =  0 [   0]
  --> SNES Linear/Non-Linear Iterations = 1 / 1
  --> SNES Residual: 0.421277E-15 0.421277E-15 0.971445E-16
  --> max change:  dcmx=   1.1355E-03  dc/dt=   2.4941E-07 [mol/s]
 Maximum Pore Velocity:   7.5911E+00 [m/d]
 CFL Limiting ( 1.0):   1.0539E-01 ->   5.2693E-02 [d]

== REACTIVE TRANSPORT ==========================================================
  0 2r: 1.18E-04 2x: 0.00E+00 2u: 0.00E+00 ir: 2.49E-05 iu: 0.00E+00 rsn:   0
  1 2r: 4.13E-16 2x: 9.91E+00 2u: 5.10E-03 ir: 1.04E-16 iu: 1.08E-03 rsn: rtol

 Step    189 Time=  9.36529E+00 Dt=  5.15201E-02 [d] conv_reason: 3
  newton =   1 [     189] linear =     1 [       189] cuts =  0 [   0]
  --> SNES Linear/Non-Linear Iterations = 1 / 1
  --> SNES Residual: 0.413491E-15 0.413491E-15 0.104083E-15
  --> max change:  dcmx=   1.0794E-03  dc/dt=   2.4248E-07 [mol/s]
 Maximum Pore Velocity:   7.5911E+00 [m/d]
 CFL Limiting ( 1.0):   1.0304E-01 ->   5.2693E-02 [d]

== RICHARDS FLOW ===============================================================
  0 2r: 4.87E-16 2x: 0.00E+00 2u: 0.00E+00 ir: 1.48E-16 iu: 0.00E+00 rsn:   0
  1 2r: 4.87E-16 2x: 1.26E+06 2u: 6.12E-11 ir: 1.48E-16 iu: 1.44E-11 rsn: stol

 Step     24 Time=  1.00000E+01 Dt=  6.34708E-01 [d] conv_reason: 4
  newton =   1 [      26] linear =     1 [        26] cuts =  0 [   0]
  --> SNES Linear/Non-Linear Iterations = 1 / 1
  --> SNES Residual: 0.486615E-15 0.486615E-17 0.148319E-15
  --> max change: dpmx=   0.0000E+00

== REACTIVE TRANSPORT ==========================================================
  0 2r: 1.14E-04 2x: 0.00E+00 2u: 0.00E+00 ir: 2.42E-05 iu: 0.00E+00 rsn:   0
  1 2r: 5.12E-16 2x: 9.91E+00 2u: 5.07E-03 ir: 1.28E-16 iu: 1.07E-03 rsn: rtol

 Step    190 Time=  9.41798E+00 Dt=  5.26933E-02 [d] conv_reason: 3
  newton =   1 [     190] linear =     1 [       190] cuts =  0 [   0]
  --> SNES Linear/Non-Linear Iterations = 1 / 1
  --> SNES Residual: 0.512117E-15 0.512117E-15 0.128370E-15
  --> max change:  dcmx=   1.0726E-03  dc/dt=   2.3559E-07 [mol/s]
 Maximum Pore Velocity:   7.5911E+00 [m/d]
 CFL Limiting ( 1.0):   1.0539E-01 ->   5.2693E-02 [d]

== REACTIVE TRANSPORT ==========================================================
  0 2r: 1.11E-04 2x: 0.00E+00 2u: 0.00E+00 ir: 2.35E-05 iu: 0.00E+00 rsn:   0
  1 2r: 3.93E-16 2x: 9.91E+00 2u: 4.92E-03 ir: 1.21E-16 iu: 1.04E-03 rsn: rtol

 Step    191 Time=  9.47068E+00 Dt=  5.26933E-02 [d] conv_reason: 3
  newton =   1 [     191] linear =     1 [       191] cuts =  0 [   0]
  --> SNES Linear/Non-Linear Iterations = 1 / 1
  --> SNES Residual: 0.393212E-15 0.393212E-15 0.121431E-15
  --> max change:  dcmx=   1.0421E-03  dc/dt=   2.2889E-07 [mol/s]
 Maximum Pore Velocity:   7.5911E+00 [m/d]
 CFL Limiting ( 1.0):   1.0539E-01 ->   5.2693E-02 [d]

== REACTIVE TRANSPORT ==========================================================
  0 2r: 1.08E-04 2x: 0.00E+00 2u: 0.00E+00 ir: 2.28E-05 iu: 0.00E+00 rsn:   0
  1 2r: 4.60E-16 2x: 9.92E+00 2u: 4.78E-03 ir: 1.21E-16 iu: 1.01E-03 rsn: rtol

 Step    192 Time=  9.52337E+00 Dt=  5.26933E-02 [d] conv_reason: 3
  newton =   1 [     192] linear =     1 [       192] cuts =  0 [   0]
  --> SNES Linear/Non-Linear Iterations = 1 / 1
  --> SNES Residual: 0.460013E-15 0.460013E-15 0.121431E-15
  --> max change:  dcmx=   1.0124E-03  dc/dt=   2.2237E-07 [mol/s]
 Maximum Pore Velocity:   7.5911E+00 [m/d]
 CFL Limiting ( 1.0):   1.0539E-01 ->   5.2693E-02 [d]

== REACTIVE TRANSPORT ==========================================================
  0 2r: 1.05E-04 2x: 0.00E+00 2u: 0.00E+00 ir: 2.22E-05 iu: 0.00E+00 rsn:   0
  1 2r: 4.56E-16 2x: 9.92E+00 2u: 4.64E-03 ir: 1.53E-16 iu: 9.84E-04 rsn: rtol

 Step    193 Time=  9.57606E+00 Dt=  5.26933E-02 [d] conv_reason: 3
  newton =   1 [     193] linear =     1 [       193] cuts =  0 [   0]
  --> SNES Linear/Non-Linear Iterations = 1 / 1
  --> SNES Residual: 0.455859E-15 0.455859E-15 0.152656E-15
  --> max change:  dcmx=   9.8354E-04  dc/dt=   2.1603E-07 [mol/s]
 Maximum Pore Velocity:   7.5911E+00 [m/d]
 CFL Limiting ( 1.0):   1.0539E-01 ->   5.2693E-02 [d]

== REACTIVE TRANSPORT ==========================================================
  0 2r: 1.02E-04 2x: 0.00E+00 2u: 0.00E+00 ir: 2.15E-05 iu: 0.00E+00 rsn:   0
  1 2r: 4.45E-16 2x: 9.92E+00 2u: 4.51E-03 ir: 1.21E-16 iu: 9.55E-04 rsn: rtol

 Step    194 Time=  9.62876E+00 Dt=  5.26933E-02 [d] conv_reason: 3
  newton =   1 [     194] linear =     1 [       194] cuts =  0 [   0]
  --> SNES Linear/Non-Linear Iterations = 1 / 1
  --> SNES Residual: 0.444753E-15 0.444753E-15 0.121431E-15
  --> max change:  dcmx=   9.5547E-04  dc/dt=   2.0987E-07 [mol/s]
 Maximum Pore Velocity:   7.5911E+00 [m/d]
 CFL Limiting ( 1.0):   1.0539E-01 ->   5.2693E-02 [d]

== REACTIVE TRANSPORT ==========================================================
  0 2r: 9.88E-05 2x: 0.00E+00 2u: 0.00E+00 ir: 2.09E-05 iu: 0.00E+00 rsn:   0
  1 2r: 4.01E-16 2x: 9.93E+00 2u: 4.38E-03 ir: 1.14E-16 iu: 9.28E-04 rsn: rtol

 Step    195 Time=  9.68145E+00 Dt=  5.26933E-02 [d] conv_reason: 3
  newton =   1 [     195] linear =     1 [       195] cuts =  0 [   0]
  --> SNES Linear/Non-Linear Iterations = 1 / 1
  --> SNES Residual: 0.400792E-15 0.400792E-15 0.114492E-15
  --> max change:  dcmx=   9.2818E-04  dc/dt=   2.0387E-07 [mol/s]
 Maximum Pore Velocity:   7.5911E+00 [m/d]
 CFL Limiting ( 1.0):   1.0539E-01 ->   5.2693E-02 [d]

== REACTIVE TRANSPORT ==========================================================
  0 2r: 9.59E-05 2x: 0.00E+00 2u: 0.00E+00 ir: 2.03E-05 iu: 0.00E+00 rsn:   0
  1 2r: 4.15E-16 2x: 9.93E+00 2u: 4.25E-03 ir: 9.71E-17 iu: 9.02E-04 rsn: rtol

 Step    196 Time=  9.73414E+00 Dt=  5.26933E-02 [d] conv_reason: 3
  newton =   1 [     196] linear =     1 [       196] cuts =  0 [   0]
  --> SNES Linear/Non-Linear Iterations = 1 / 1
  --> SNES Residual: 0.415451E-15 0.415451E-15 0.971445E-16
  --> max change:  dcmx=   9.0164E-04  dc/dt=   1.9804E-07 [mol/s]
 Maximum Pore Velocity:   7.5911E+00 [m/d]
 CFL Limiting ( 1.0):   1.0539E-01 ->   5.2693E-02 [d]

== REACTIVE TRANSPORT ==========================================================
  0 2r: 9.32E-05 2x: 0.00E+00 2u: 0.00E+00 ir: 1.97E-05 iu: 0.00E+00 rsn:   0
  1 2r: 4.82E-16 2x: 9.93E+00 2u: 4.13E-03 ir: 1.32E-16 iu: 8.76E-04 rsn: rtol

 Step    197 Time=  9.78684E+00 Dt=  5.26933E-02 [d] conv_reason: 3
  newton =   1 [     197] linear =     1 [       197] cuts =  0 [   0]
  --> SNES Linear/Non-Linear Iterations = 1 / 1
  --> SNES Residual: 0.481666E-15 0.481666E-15 0.131839E-15
  --> max change:  dcmx=   8.7583E-04  dc/dt=   1.9238E-07 [mol/s]
 Maximum Pore Velocity:   7.5911E+00 [m/d]
 CFL Limiting ( 1.0):   1.0539E-01 ->   5.2693E-02 [d]

== REACTIVE TRANSPORT ==========================================================
  0 2r: 9.05E-05 2x: 0.00E+00 2u: 0.00E+00 ir: 1.92E-05 iu: 0.00E+00 rsn:   0
  1 2r: 4.28E-16 2x: 9.93E+00 2u: 4.01E-03 ir: 1.08E-16 iu: 8.51E-04 rsn: rtol

 Step    198 Time=  9.83953E+00 Dt=  5.26933E-02 [d] conv_reason: 3
  newton =   1 [     198] linear =     1 [       198] cuts =  0 [   0]
  --> SNES Linear/Non-Linear Iterations = 1 / 1
  --> SNES Residual: 0.428192E-15 0.428192E-15 0.107553E-15
  --> max change:  dcmx=   8.5075E-04  dc/dt=   1.8687E-07 [mol/s]
 Maximum Pore Velocity:   7.5911E+00 [m/d]
 CFL Limiting ( 1.0):   1.0539E-01 ->   5.2693E-02 [d]

== REACTIVE TRANSPORT ==========================================================
  0 2r: 8.79E-05 2x: 0.00E+00 2u: 0.00E+00 ir: 1.86E-05 iu: 0.00E+00 rsn:   0
  1 2r: 4.57E-16 2x: 9.94E+00 2u: 3.89E-03 ir: 1.08E-16 iu: 8.26E-04 rsn: rtol

 Step    199 Time=  9.89222E+00 Dt=  5.26933E-02 [d] conv_reason: 3
  newton =   1 [     199] linear =     1 [       199] cuts =  0 [   0]
  --> SNES Linear/Non-Linear Iterations = 1 / 1
  --> SNES Residual: 0.457151E-15 0.457151E-15 0.107553E-15
  --> max change:  dcmx=   8.2636E-04  dc/dt=   1.8151E-07 [mol/s]
 Maximum Pore Velocity:   7.5911E+00 [m/d]
 CFL Limiting ( 1.0):   1.0539E-01 ->   5.2693E-02 [d]

== REACTIVE TRANSPORT ==========================================================
  0 2r: 8.53E-05 2x: 0.00E+00 2u: 0.00E+00 ir: 1.81E-05 iu: 0.00E+00 rsn:   0
  1 2r: 4.60E-16 2x: 9.94E+00 2u: 3.78E-03 ir: 1.56E-16 iu: 8.03E-04 rsn: rtol

 Step    200 Time=  9.94492E+00 Dt=  5.26933E-02 [d] conv_reason: 3
  newton =   1 [     200] linear =     1 [       200] cuts =  0 [   0]
  --> SNES Linear/Non-Linear Iterations = 1 / 1
  --> SNES Residual: 0.459685E-15 0.459685E-15 0.156125E-15
  --> max change:  dcmx=   8.0264E-04  dc/dt=   1.7630E-07 [mol/s]
 Maximum Pore Velocity:   7.5911E+00 [m/d]
 CFL Limiting ( 1.0):   1.0539E-01 ->   5.2693E-02 [d]

== REACTIVE TRANSPORT ==========================================================
  0 2r: 8.28E-05 2x: 0.00E+00 2u: 0.00E+00 ir: 1.76E-05 iu: 0.00E+00 rsn:   0
  1 2r: 4.76E-16 2x: 9.94E+00 2u: 3.83E-03 ir: 1.32E-16 iu: 8.14E-04 rsn: rtol

 Step    201 Time=  1.00000E+01 Dt=  5.50817E-02 [d] conv_reason: 3
  newton =   1 [     201] linear =     1 [       201] cuts =  0 [   0]
  --> SNES Linear/Non-Linear Iterations = 1 / 1
  --> SNES Residual: 0.476187E-15 0.476187E-15 0.131839E-15
  --> max change:  dcmx=   8.1387E-04  dc/dt=   1.7101E-07 [mol/s]
 Maximum Pore Velocity:   7.5911E+00 [m/d]
 CFL Limiting ( 1.0):   1.1016E-01 ->   5.2693E-02 [d]


PMCSubsurfaceFlow
 Total Time: 3.1807E-02 seconds

 FLOW TS SNES steps = 24  newton = 26  linear = 26  cuts = 0
 FLOW TS SNES Wasted Linear Iterations = 0
 FLOW TS SNES Wasted Newton Iterations = 0
 FLOW TS SNES time = 0.0 seconds

PMCSubsurfaceTransport
 Total Time: 2.3344E-01 seconds

 TRAN TS SNES steps = 201  newton = 201  linear = 201  cuts = 0
 TRAN TS SNES Wasted Linear Iterations = 0
 TRAN TS SNES Wasted Newton Iterations = 0
 TRAN TS SNES time = 0.2 seconds

 Wall Clock Time:  4.8626E-01 [sec]   8.1043E-03 [min]   1.3507E-04 [hr]
