
=================
  PFLOTRAN v6.0
=================

"grid_structured_type" set to default value.
pflotran card:: NUMERICAL_METHODS
pflotran card:: GRID
pflotran card:: MATERIAL_PROPERTY
  Name :: soil1
pflotran card:: CHARACTERISTIC_CURVES
  Name :: default
 WARNING: Mualem-van Genuchten relative permeability function is being used without SMOOTH option.
pflotran card:: OUTPUT
"OUTPUT,SNAPSHOT_FILE,FORMAT,HDF5" set to default value.
pflotran card:: TIME
pflotran card:: REGION
all
pflotran card:: REGION
top
pflotran card:: REGION
bottom
pflotran card:: REGION
east
pflotran card:: REGION
west
pflotran card:: FLOW_CONDITION
initial
pflotran card:: FLOW_CONDITION
recharge
pflotran card:: FLOW_CONDITION
west
pflotran card:: FLOW_CONDITION
east
pflotran card:: INITIAL_CONDITION
"Initial Condition name" set to default value.
pflotran card:: BOUNDARY_CONDITION
pflotran card:: BOUNDARY_CONDITION
pflotran card:: BOUNDARY_CONDITION
pflotran card:: STRATA
pflotran card:: END_SUBSURFACE

Process Decomposition

Extent of Gridded Domain
 X: 0.000000E+00 - 2.220000E+02
 Y: 0.000000E+00 - 1.000000E+00
 Z: 0.000000E+00 - 6.100000E+00

Size of Gridded Domain
 Number of grid cells: 6660
 Maximum number of grid cells per process: 840
 Minimum number of grid cells per process: 810

Number of active grid cells: 6660
Number of inactive grid cells: 0


=+=+=+=+=+=+=+=+=+=+=+=+=+=+=+=+=+=+=+=+=+=+=+=+=+=+=+=+=+=+=+=+=+=+=+=+=+=+=+=+

  Initial Condition

--------------------------------------------------------------------------------
          Flow Condition:   initial
                  Region:   all
--------------------------------------------------------------------------------

  Flow Condition: initial
    Synchronize time with update: no
    Time units: yr
    Length units: m
      Datum:
        Dataset: Unnamed Ascii Dataset
          Type: dataset_ascii_type
          Transient: no
          Array Rank:  3

    Sub Condition: pressure
      Type: hydrostatic
      Gradient:
      Data:
        Dataset: Unnamed Ascii Dataset
          Type: dataset_ascii_type
          Transient: no
          Array Rank:  1

--------------------------------------------------------------------------------

=+=+=+=+=+=+=+=+=+=+=+=+=+=+=+=+=+=+=+=+=+=+=+=+=+=+=+=+=+=+=+=+=+=+=+=+=+=+=+=+

  Boundary Condition

--------------------------------------------------------------------------------
          Flow Condition:   recharge
                  Region:   top
--------------------------------------------------------------------------------

  Flow Condition: recharge
    Synchronize time with update: no
    Time units: yr
    Length units: m
      Datum:

    Sub Condition: pressure
      Type: neumann
      Gradient:
      Data:
        Dataset: Unnamed Ascii Dataset
          Type: dataset_ascii_type
          Transient: no
          Array Rank:  1

--------------------------------------------------------------------------------

=+=+=+=+=+=+=+=+=+=+=+=+=+=+=+=+=+=+=+=+=+=+=+=+=+=+=+=+=+=+=+=+=+=+=+=+=+=+=+=+

  Boundary Condition

--------------------------------------------------------------------------------
          Flow Condition:   east
                  Region:   east
--------------------------------------------------------------------------------

  Flow Condition: east
    Synchronize time with update: no
    Time units: yr
    Length units: m
      Datum:
        Dataset: Unnamed Ascii Dataset
          Type: dataset_ascii_type
          Filename: ./BSFR_stage.txt
          Is transient?: yes
          Number of times:      2
          Is cyclic?: yes
          Buffer:
            Rank:  2
            Dims:    3   2
            Buffer Slice Size:   0
          Array Rank:  3

    Sub Condition: pressure
      Type: conductance
      Gradient:
      Data:
        Dataset: Unnamed Ascii Dataset
          Type: dataset_ascii_type
          Transient: no
          Array Rank:  1

--------------------------------------------------------------------------------

=+=+=+=+=+=+=+=+=+=+=+=+=+=+=+=+=+=+=+=+=+=+=+=+=+=+=+=+=+=+=+=+=+=+=+=+=+=+=+=+

  Boundary Condition

--------------------------------------------------------------------------------
          Flow Condition:   west
                  Region:   west
--------------------------------------------------------------------------------

  Flow Condition: west
    Synchronize time with update: no
    Time units: yr
    Length units: m
      Datum:
        Dataset: Unnamed Ascii Dataset
          Type: dataset_ascii_type
          Filename: ./HBSFC_stage.txt
          Is transient?: yes
          Number of times:      2
          Is cyclic?: yes
          Buffer:
            Rank:  2
            Dims:    3   2
            Buffer Slice Size:   0
          Array Rank:  3

    Sub Condition: pressure
      Type: conductance
      Gradient:
      Data:
        Dataset: Unnamed Ascii Dataset
          Type: dataset_ascii_type
          Transient: no
          Array Rank:  1

--------------------------------------------------------------------------------
Default HDF5 method is used in Initialization
  Beginning setup of FLOW SNES
 number of dofs =   1, number of phases =   1
 mode = Richards: p
  Finished setting up FLOW SNES

 Requested processors and decomposition =     8, npx,y,z=   -1  -1  -1
 Actual decomposition: npx,y,z=    8   1   1


FLOW Time Stepper SNES
      maximum number of steps: 999999
constant time steps threshold: 5
       maximum number of cuts: 16
             reduction factor: 5.000000E-01
        maximum growth factor: 2.000000E+00
                 acceleration: on
       acceleration threshold: 5
       number of ramp entries: 5
                ramp entry #1: 2.0000
                ramp entry #2: 2.0000
                ramp entry #3: 2.0000
                ramp entry #4: 2.0000
                ramp entry #5: 2.0000
                ramp entry #6: 1.8000
                ramp entry #7: 1.6000
                ramp entry #8: 1.4000
                ramp entry #9: 1.2000
               ramp entry #10: 1.0000
               ramp entry #11: 1.0000
               ramp entry #12: 1.0000
               ramp entry #13: 1.0000

FLOW Newton Solver
                         atol: 1.000000E-50
                         rtol: 1.000000E-08
                         stol: 1.000000E-08
                         dtol: 1.000000E+04
                      maxnorm: 1.000000E+20
                    inftolres: -9.990000E+02
                    inftolupd: -9.990000E+02
                 inftolrelupd: -9.990000E+02
                 inftolsclres: -9.990000E+02
                     max iter: 50
                     min iter: 1
                         maxf: 10000
                  matrix type: baij
         precond. matrix type: baij
               inexact newton: off
            print convergence: on
   print detailed convergence: off
          check infinity norm: on

FLOW Linear Solver
                       solver: bcgs
               preconditioner: bjacobi
                         atol: 1.000000E-50
                         rtol: 1.000000E-05
                         dtol: 1.000000E+04
            maximum iteration: 10000

 --> creating hdf5 output file: 2D_flow-steady-state.h5
      0.07 Seconds to write HDF5 file.

 Finished Initialization


== RICHARDS FLOW ===============================================================
  0 2r: 4.17E-02 2x: 0.00E+00 2u: 0.00E+00 ir: 1.36E-02 iu: 0.00E+00 rsn:   0
  1 2r: 3.43E-03 2x: 7.56E+06 2u: 1.67E+04 ir: 3.42E-03 iu: 1.00E+03 rsn:   0
  2 2r: 5.22E-05 2x: 7.56E+06 2u: 4.46E+02 ir: 3.99E-05 iu: 5.75E+01 rsn:   0
  3 2r: 1.41E-09 2x: 7.56E+06 2u: 1.31E+00 ir: 1.05E-09 iu: 1.38E-01 rsn:   0
  4 2r: 1.53E-13 2x: 7.56E+06 2u: 2.81E-03 ir: 8.17E-15 iu: 6.89E-05 rsn: rtol

 Step      1 Time=  1.14155E-04 Dt=  1.14155E-04 [y] conv_reason: 3
  newton =   4 [       4] linear =   395 [       395] cuts =  0 [   0]
  --> SNES Linear/Non-Linear Iterations = 395 / 4
  --> SNES Residual: 0.152563E-12 0.229074E-16 0.817207E-14
  --> max change: dpmx=   1.0209E+03

== RICHARDS FLOW ===============================================================
  0 2r: 2.74E-04 2x: 0.00E+00 2u: 0.00E+00 ir: 3.15E-05 iu: 0.00E+00 rsn:   0
  1 2r: 3.09E-05 2x: 7.55E+06 2u: 1.10E+04 ir: 1.15E-05 iu: 3.99E+02 rsn:   0
  2 2r: 6.95E-09 2x: 7.55E+06 2u: 9.74E+01 ir: 2.85E-09 iu: 1.04E+01 rsn:   0
  3 2r: 1.01E-12 2x: 7.55E+06 2u: 4.33E-01 ir: 6.37E-14 iu: 8.76E-03 rsn: rtol

 Step      2 Time=  3.42466E-04 Dt=  2.28311E-04 [y] conv_reason: 3
  newton =   3 [       7] linear =   306 [       701] cuts =  0 [   0]
  --> SNES Linear/Non-Linear Iterations = 306 / 3
  --> SNES Residual: 0.100880E-11 0.151471E-15 0.637325E-13
  --> max change: dpmx=   4.0924E+02

== RICHARDS FLOW ===============================================================
  0 2r: 8.04E-05 2x: 0.00E+00 2u: 0.00E+00 ir: 4.11E-06 iu: 0.00E+00 rsn:   0
  1 2r: 8.57E-06 2x: 7.55E+06 2u: 9.81E+03 ir: 5.22E-06 iu: 2.34E+02 rsn:   0
  2 2r: 1.47E-07 2x: 7.55E+06 2u: 4.30E+01 ir: 1.16E-07 iu: 2.50E+00 rsn:   0
  3 2r: 1.50E-12 2x: 7.55E+06 2u: 2.53E-01 ir: 2.11E-13 iu: 6.98E-03 rsn:   0
  4 2r: 1.52E-13 2x: 7.55E+06 2u: 2.62E-04 ir: 8.54E-15 iu: 4.50E-06 rsn: rtol

 Step      3 Time=  7.99087E-04 Dt=  4.56621E-04 [y] conv_reason: 3
  newton =   4 [      11] linear =   532 [      1233] cuts =  0 [   0]
  --> SNES Linear/Non-Linear Iterations = 532 / 4
  --> SNES Residual: 0.152377E-12 0.228795E-16 0.854124E-14
  --> max change: dpmx=   2.3579E+02

== RICHARDS FLOW ===============================================================
  0 2r: 3.60E-05 2x: 0.00E+00 2u: 0.00E+00 ir: 1.52E-06 iu: 0.00E+00 rsn:   0
  1 2r: 4.39E-06 2x: 7.54E+06 2u: 7.14E+03 ir: 2.62E-06 iu: 1.55E+02 rsn:   0
  2 2r: 1.06E-07 2x: 7.54E+06 2u: 1.96E+01 ir: 7.31E-08 iu: 7.94E-01 rsn:   0
  3 2r: 4.07E-13 2x: 7.54E+06 2u: 1.11E-02 ir: 2.20E-14 iu: 3.33E-03 rsn: stol

 Step      4 Time=  1.71233E-03 Dt=  9.13242E-04 [y] conv_reason: 4
  newton =   3 [      14] linear =   417 [      1650] cuts =  0 [   0]
  --> SNES Linear/Non-Linear Iterations = 417 / 3
  --> SNES Residual: 0.406817E-12 0.610836E-16 0.220475E-13
  --> max change: dpmx=   1.5540E+02

== RICHARDS FLOW ===============================================================
  0 2r: 1.32E-05 2x: 0.00E+00 2u: 0.00E+00 ir: 5.31E-07 iu: 0.00E+00 rsn:   0
  1 2r: 1.90E-06 2x: 7.54E+06 2u: 3.55E+03 ir: 1.09E-06 iu: 7.77E+01 rsn:   0
  2 2r: 2.81E-09 2x: 7.54E+06 2u: 5.75E+00 ir: 1.97E-09 iu: 3.72E-01 rsn:   0
  3 2r: 1.51E-13 2x: 7.54E+06 2u: 2.54E-02 ir: 8.46E-15 iu: 5.56E-04 rsn: stol

 Step      5 Time=  3.53881E-03 Dt=  1.82648E-03 [y] conv_reason: 4
  newton =   3 [      17] linear =   451 [      2101] cuts =  0 [   0]
  --> SNES Linear/Non-Linear Iterations = 451 / 3
  --> SNES Residual: 0.151063E-12 0.226821E-16 0.846083E-14
  --> max change: dpmx=   7.7897E+01

== RICHARDS FLOW ===============================================================
  0 2r: 3.28E-06 2x: 0.00E+00 2u: 0.00E+00 ir: 1.36E-07 iu: 0.00E+00 rsn:   0
  1 2r: 8.27E-07 2x: 7.54E+06 2u: 1.66E+03 ir: 4.10E-07 iu: 3.11E+01 rsn:   0
  2 2r: 6.71E-11 2x: 7.54E+06 2u: 2.02E+00 ir: 3.56E-12 iu: 2.05E-01 rsn:   0
  3 2r: 1.56E-13 2x: 7.54E+06 2u: 4.03E-02 ir: 8.71E-15 iu: 5.67E-04 rsn: stol

 Step      6 Time=  7.19178E-03 Dt=  3.65297E-03 [y] conv_reason: 4
  newton =   3 [      20] linear =   459 [      2560] cuts =  0 [   0]
  --> SNES Linear/Non-Linear Iterations = 459 / 3
  --> SNES Residual: 0.155923E-12 0.234119E-16 0.871067E-14
  --> max change: dpmx=   3.1168E+01

== RICHARDS FLOW ===============================================================
  0 2r: 7.79E-07 2x: 0.00E+00 2u: 0.00E+00 ir: 2.88E-08 iu: 0.00E+00 rsn:   0
  1 2r: 2.17E-07 2x: 7.54E+06 2u: 1.11E+03 ir: 1.70E-07 iu: 1.68E+01 rsn:   0
  2 2r: 1.49E-12 2x: 7.54E+06 2u: 2.19E-01 ir: 1.39E-13 iu: 4.37E-03 rsn:   0
  3 2r: 1.45E-13 2x: 7.54E+06 2u: 6.40E-04 ir: 8.47E-15 iu: 1.23E-05 rsn: stol

 Step      7 Time=  1.44977E-02 Dt=  7.30594E-03 [y] conv_reason: 4
  newton =   3 [      23] linear =   480 [      3040] cuts =  0 [   0]
  --> SNES Linear/Non-Linear Iterations = 480 / 3
  --> SNES Residual: 0.144787E-12 0.217398E-16 0.847168E-14
  --> max change: dpmx=   1.6762E+01

== RICHARDS FLOW ===============================================================
  0 2r: 2.62E-07 2x: 0.00E+00 2u: 0.00E+00 ir: 8.43E-09 iu: 0.00E+00 rsn:   0
  1 2r: 1.83E-09 2x: 7.54E+06 2u: 5.24E+02 ir: 1.12E-09 iu: 8.76E+00 rsn:   0
  2 2r: 3.16E-13 2x: 7.54E+06 2u: 7.76E-02 ir: 1.72E-14 iu: 2.07E-03 rsn:   0
  3 2r: 1.45E-13 2x: 7.54E+06 2u: 7.96E-05 ir: 7.68E-15 iu: 1.72E-06 rsn: stol

 Step      8 Time=  2.73973E-02 Dt=  1.28995E-02 [y] conv_reason: 4
  newton =   3 [      26] linear =   493 [      3533] cuts =  0 [   0]
  --> SNES Linear/Non-Linear Iterations = 493 / 3
  --> SNES Residual: 0.145441E-12 0.218380E-16 0.767783E-14
  --> max change: dpmx=   8.7631E+00

 --> appending to hdf5 output file: 2D_flow-steady-state.h5
      0.04 Seconds to write HDF5 file.

== RICHARDS FLOW ===============================================================
  0 2r: 7.00E-08 2x: 0.00E+00 2u: 0.00E+00 ir: 2.48E-09 iu: 0.00E+00 rsn:   0
  1 2r: 1.62E-10 2x: 7.54E+06 2u: 1.46E+02 ir: 8.96E-11 iu: 2.48E+00 rsn:   0
  2 2r: 1.52E-13 2x: 7.54E+06 2u: 7.76E-03 ir: 8.94E-15 iu: 2.18E-04 rsn: stol

 Step      9 Time=  4.20091E-02 Dt=  1.46119E-02 [y] conv_reason: 4
  newton =   2 [      28] linear =   343 [      3876] cuts =  0 [   0]
  --> SNES Linear/Non-Linear Iterations = 343 / 2
  --> SNES Residual: 0.151760E-12 0.227868E-16 0.893910E-14
  --> max change: dpmx=   2.4827E+00

== RICHARDS FLOW ===============================================================
  0 2r: 1.72E-08 2x: 0.00E+00 2u: 0.00E+00 ir: 6.19E-10 iu: 0.00E+00 rsn:   0
  1 2r: 4.82E-09 2x: 7.54E+06 2u: 3.47E+01 ir: 3.41E-09 iu: 5.91E-01 rsn:   0
  2 2r: 1.49E-13 2x: 7.54E+06 2u: 2.07E-03 ir: 8.80E-15 iu: 4.63E-05 rsn: stol

 Step     10 Time=  5.47945E-02 Dt=  1.27854E-02 [y] conv_reason: 4
  newton =   2 [      30] linear =   324 [      4200] cuts =  0 [   0]
  --> SNES Linear/Non-Linear Iterations = 324 / 2
  --> SNES Residual: 0.148886E-12 0.223552E-16 0.880426E-14
  --> max change: dpmx=   5.9137E-01

 --> appending to hdf5 output file: 2D_flow-steady-state.h5
      0.06 Seconds to write HDF5 file.

== RICHARDS FLOW ===============================================================
  0 2r: 4.67E-09 2x: 0.00E+00 2u: 0.00E+00 ir: 1.68E-10 iu: 0.00E+00 rsn:   0
  1 2r: 3.60E-12 2x: 7.54E+06 2u: 1.10E+01 ir: 4.56E-13 iu: 1.88E-01 rsn:   0
  2 2r: 1.50E-13 2x: 7.54E+06 2u: 3.70E-04 ir: 8.43E-15 iu: 6.78E-06 rsn: stol

 Step     11 Time=  8.21918E-02 Dt=  2.73973E-02 [y] conv_reason: 4
  newton =   2 [      32] linear =   355 [      4555] cuts =  0 [   0]
  --> SNES Linear/Non-Linear Iterations = 355 / 2
  --> SNES Residual: 0.149663E-12 0.224719E-16 0.842700E-14
  --> max change: dpmx=   1.8784E-01

 --> appending to hdf5 output file: 2D_flow-steady-state.h5
      0.03 Seconds to write HDF5 file.

== RICHARDS FLOW ===============================================================
  0 2r: 6.93E-10 2x: 0.00E+00 2u: 0.00E+00 ir: 2.50E-11 iu: 0.00E+00 rsn:   0
  1 2r: 4.03E-13 2x: 7.54E+06 2u: 1.63E+00 ir: 2.96E-14 iu: 2.78E-02 rsn:   0
  2 2r: 1.51E-13 2x: 7.54E+06 2u: 3.66E-05 ir: 8.21E-15 iu: 6.91E-07 rsn: stol

 Step     12 Time=  1.09589E-01 Dt=  2.73973E-02 [y] conv_reason: 4
  newton =   2 [      34] linear =   411 [      4966] cuts =  0 [   0]
  --> SNES Linear/Non-Linear Iterations = 411 / 2
  --> SNES Residual: 0.150593E-12 0.226116E-16 0.821314E-14
  --> max change: dpmx=   2.7833E-02

 --> appending to hdf5 output file: 2D_flow-steady-state.h5
      0.03 Seconds to write HDF5 file.

== RICHARDS FLOW ===============================================================
  0 2r: 1.03E-10 2x: 0.00E+00 2u: 0.00E+00 ir: 3.70E-12 iu: 0.00E+00 rsn:   0
  1 2r: 1.79E-13 2x: 7.54E+06 2u: 2.42E-01 ir: 1.09E-14 iu: 4.12E-03 rsn:   0
  2 2r: 1.43E-13 2x: 7.54E+06 2u: 9.99E-06 ir: 8.62E-15 iu: 1.90E-07 rsn: stol

 Step     13 Time=  1.36986E-01 Dt=  2.73973E-02 [y] conv_reason: 4
  newton =   2 [      36] linear =   312 [      5278] cuts =  0 [   0]
  --> SNES Linear/Non-Linear Iterations = 312 / 2
  --> SNES Residual: 0.143034E-12 0.214765E-16 0.861826E-14
  --> max change: dpmx=   4.1241E-03

 --> appending to hdf5 output file: 2D_flow-steady-state.h5
      0.03 Seconds to write HDF5 file.

== RICHARDS FLOW ===============================================================
  0 2r: 1.52E-11 2x: 0.00E+00 2u: 0.00E+00 ir: 5.49E-13 iu: 0.00E+00 rsn:   0
  1 2r: 1.50E-13 2x: 7.54E+06 2u: 3.58E-02 ir: 8.52E-15 iu: 6.11E-04 rsn: stol

 Step     14 Time=  1.64384E-01 Dt=  2.73973E-02 [y] conv_reason: 4
  newton =   1 [      37] linear =   138 [      5416] cuts =  0 [   0]
  --> SNES Linear/Non-Linear Iterations = 138 / 1
  --> SNES Residual: 0.150027E-12 0.225266E-16 0.851915E-14
  --> max change: dpmx=   6.1104E-04

 --> appending to hdf5 output file: 2D_flow-steady-state.h5
      0.03 Seconds to write HDF5 file.

== RICHARDS FLOW ===============================================================
  0 2r: 2.26E-12 2x: 0.00E+00 2u: 0.00E+00 ir: 8.17E-14 iu: 0.00E+00 rsn:   0
  1 2r: 1.47E-13 2x: 7.54E+06 2u: 5.31E-03 ir: 8.67E-15 iu: 9.06E-05 rsn: stol

 Step     15 Time=  1.91781E-01 Dt=  2.73973E-02 [y] conv_reason: 4
  newton =   1 [      38] linear =   144 [      5560] cuts =  0 [   0]
  --> SNES Linear/Non-Linear Iterations = 144 / 1
  --> SNES Residual: 0.146540E-12 0.220029E-16 0.866536E-14
  --> max change: dpmx=   9.0551E-05

 --> appending to hdf5 output file: 2D_flow-steady-state.h5
      0.04 Seconds to write HDF5 file.

== RICHARDS FLOW ===============================================================
  0 2r: 3.65E-13 2x: 0.00E+00 2u: 0.00E+00 ir: 1.28E-14 iu: 0.00E+00 rsn:   0
  1 2r: 1.51E-13 2x: 7.54E+06 2u: 7.86E-04 ir: 8.81E-15 iu: 1.34E-05 rsn: stol

 Step     16 Time=  2.19178E-01 Dt=  2.73973E-02 [y] conv_reason: 4
  newton =   1 [      39] linear =   174 [      5734] cuts =  0 [   0]
  --> SNES Linear/Non-Linear Iterations = 174 / 1
  --> SNES Residual: 0.151252E-12 0.227104E-16 0.881122E-14
  --> max change: dpmx=   1.3418E-05

 --> appending to hdf5 output file: 2D_flow-steady-state.h5
      0.03 Seconds to write HDF5 file.

== RICHARDS FLOW ===============================================================
  0 2r: 1.59E-13 2x: 0.00E+00 2u: 0.00E+00 ir: 8.81E-15 iu: 0.00E+00 rsn:   0
  1 2r: 1.48E-13 2x: 7.54E+06 2u: 1.16E-04 ir: 7.91E-15 iu: 1.99E-06 rsn: stol

 Step     17 Time=  2.46575E-01 Dt=  2.73973E-02 [y] conv_reason: 4
  newton =   1 [      40] linear =   139 [      5873] cuts =  0 [   0]
  --> SNES Linear/Non-Linear Iterations = 139 / 1
  --> SNES Residual: 0.147842E-12 0.221985E-16 0.791245E-14
  --> max change: dpmx=   1.9873E-06

 --> appending to hdf5 output file: 2D_flow-steady-state.h5
      0.03 Seconds to write HDF5 file.

== RICHARDS FLOW ===============================================================
  0 2r: 1.48E-13 2x: 0.00E+00 2u: 0.00E+00 ir: 7.91E-15 iu: 0.00E+00 rsn:   0
  1 2r: 1.50E-13 2x: 7.54E+06 2u: 1.73E-05 ir: 8.35E-15 iu: 2.94E-07 rsn: stol

 Step     18 Time=  2.73973E-01 Dt=  2.73973E-02 [y] conv_reason: 4
  newton =   1 [      41] linear =   200 [      6073] cuts =  0 [   0]
  --> SNES Linear/Non-Linear Iterations = 200 / 1
  --> SNES Residual: 0.150042E-12 0.225288E-16 0.834650E-14
  --> max change: dpmx=   2.9444E-07

 --> appending to hdf5 output file: 2D_flow-steady-state.h5
      0.04 Seconds to write HDF5 file.

== RICHARDS FLOW ===============================================================
  0 2r: 1.50E-13 2x: 0.00E+00 2u: 0.00E+00 ir: 8.35E-15 iu: 0.00E+00 rsn:   0
  1 2r: 1.51E-13 2x: 7.54E+06 2u: 2.56E-06 ir: 8.82E-15 iu: 4.36E-08 rsn: stol

 Step     19 Time=  3.01370E-01 Dt=  2.73973E-02 [y] conv_reason: 4
  newton =   1 [      42] linear =   141 [      6214] cuts =  0 [   0]
  --> SNES Linear/Non-Linear Iterations = 141 / 1
  --> SNES Residual: 0.150561E-12 0.226068E-16 0.882253E-14
  --> max change: dpmx=   4.3634E-08

 --> appending to hdf5 output file: 2D_flow-steady-state.h5
      0.04 Seconds to write HDF5 file.

== RICHARDS FLOW ===============================================================
  0 2r: 1.51E-13 2x: 0.00E+00 2u: 0.00E+00 ir: 8.82E-15 iu: 0.00E+00 rsn:   0
  1 2r: 1.45E-13 2x: 7.54E+06 2u: 3.79E-07 ir: 8.64E-15 iu: 6.47E-09 rsn: stol

 Step     20 Time=  3.28767E-01 Dt=  2.73973E-02 [y] conv_reason: 4
  newton =   1 [      43] linear =   148 [      6362] cuts =  0 [   0]
  --> SNES Linear/Non-Linear Iterations = 148 / 1
  --> SNES Residual: 0.144631E-12 0.217163E-16 0.864444E-14
  --> max change: dpmx=   6.4683E-09

 --> appending to hdf5 output file: 2D_flow-steady-state.h5
      0.03 Seconds to write HDF5 file.

== RICHARDS FLOW ===============================================================
  0 2r: 1.45E-13 2x: 0.00E+00 2u: 0.00E+00 ir: 8.64E-15 iu: 0.00E+00 rsn:   0
  1 2r: 1.49E-13 2x: 7.54E+06 2u: 5.62E-08 ir: 8.35E-15 iu: 9.62E-10 rsn: stol

 Step     21 Time=  3.56164E-01 Dt=  2.73973E-02 [y] conv_reason: 4
  newton =   1 [      44] linear =   125 [      6487] cuts =  0 [   0]
  --> SNES Linear/Non-Linear Iterations = 125 / 1
  --> SNES Residual: 0.149477E-12 0.224439E-16 0.834712E-14
  --> max change: dpmx=   9.6043E-10

 --> appending to hdf5 output file: 2D_flow-steady-state.h5
      0.04 Seconds to write HDF5 file.

== RICHARDS FLOW ===============================================================
  0 2r: 1.49E-13 2x: 0.00E+00 2u: 0.00E+00 ir: 8.35E-15 iu: 0.00E+00 rsn:   0
  1 2r: 1.49E-13 2x: 7.54E+06 2u: 8.32E-09 ir: 8.41E-15 iu: 1.48E-10 rsn: stol

 Step     22 Time=  3.83562E-01 Dt=  2.73973E-02 [y] conv_reason: 4
  newton =   1 [      45] linear =   143 [      6630] cuts =  0 [   0]
  --> SNES Linear/Non-Linear Iterations = 143 / 1
  --> SNES Residual: 0.149168E-12 0.223976E-16 0.840994E-14
  --> max change: dpmx=   1.4552E-10

 --> appending to hdf5 output file: 2D_flow-steady-state.h5
      0.04 Seconds to write HDF5 file.

== RICHARDS FLOW ===============================================================
  0 2r: 1.49E-13 2x: 0.00E+00 2u: 0.00E+00 ir: 8.41E-15 iu: 0.00E+00 rsn:   0
  1 2r: 1.49E-13 2x: 7.54E+06 2u: 1.28E-09 ir: 8.82E-15 iu: 2.80E-11 rsn: stol

 Step     23 Time=  4.10959E-01 Dt=  2.73973E-02 [y] conv_reason: 4
  newton =   1 [      46] linear =   102 [      6732] cuts =  0 [   0]
  --> SNES Linear/Non-Linear Iterations = 102 / 1
  --> SNES Residual: 0.148925E-12 0.223612E-16 0.882252E-14
  --> max change: dpmx=   2.9104E-11

 --> appending to hdf5 output file: 2D_flow-steady-state.h5
      0.03 Seconds to write HDF5 file.

== RICHARDS FLOW ===============================================================
  0 2r: 1.49E-13 2x: 0.00E+00 2u: 0.00E+00 ir: 8.82E-15 iu: 0.00E+00 rsn:   0
  1 2r: 1.48E-13 2x: 7.54E+06 2u: 3.57E-10 ir: 8.74E-15 iu: 9.78E-12 rsn: stol

 Step     24 Time=  4.38356E-01 Dt=  2.73973E-02 [y] conv_reason: 4
  newton =   1 [      47] linear =   115 [      6847] cuts =  0 [   0]
  --> SNES Linear/Non-Linear Iterations = 115 / 1
  --> SNES Residual: 0.147859E-12 0.222010E-16 0.873887E-14
  --> max change: dpmx=   1.4552E-11

 --> appending to hdf5 output file: 2D_flow-steady-state.h5
      0.03 Seconds to write HDF5 file.

== RICHARDS FLOW ===============================================================
  0 2r: 1.48E-13 2x: 0.00E+00 2u: 0.00E+00 ir: 8.74E-15 iu: 0.00E+00 rsn:   0
  1 2r: 1.49E-13 2x: 7.54E+06 2u: 3.30E-10 ir: 8.75E-15 iu: 7.44E-12 rsn: stol

 Step     25 Time=  4.65753E-01 Dt=  2.73973E-02 [y] conv_reason: 4
  newton =   1 [      48] linear =    73 [      6920] cuts =  0 [   0]
  --> SNES Linear/Non-Linear Iterations = 73 / 1
  --> SNES Residual: 0.149104E-12 0.223880E-16 0.874980E-14
  --> max change: dpmx=   1.4552E-11

 --> appending to hdf5 output file: 2D_flow-steady-state.h5
      0.03 Seconds to write HDF5 file.

== RICHARDS FLOW ===============================================================
  0 2r: 1.49E-13 2x: 0.00E+00 2u: 0.00E+00 ir: 8.75E-15 iu: 0.00E+00 rsn:   0
  1 2r: 1.50E-13 2x: 7.54E+06 2u: 3.31E-10 ir: 8.75E-15 iu: 7.83E-12 rsn: stol

 Step     26 Time=  4.93151E-01 Dt=  2.73973E-02 [y] conv_reason: 4
  newton =   1 [      49] linear =   103 [      7023] cuts =  0 [   0]
  --> SNES Linear/Non-Linear Iterations = 103 / 1
  --> SNES Residual: 0.149516E-12 0.224498E-16 0.874980E-14
  --> max change: dpmx=   1.4552E-11

 --> appending to hdf5 output file: 2D_flow-steady-state.h5
      0.03 Seconds to write HDF5 file.

== RICHARDS FLOW ===============================================================
  0 2r: 1.50E-13 2x: 0.00E+00 2u: 0.00E+00 ir: 8.75E-15 iu: 0.00E+00 rsn:   0
  1 2r: 1.50E-13 2x: 7.54E+06 2u: 3.31E-10 ir: 8.75E-15 iu: 7.42E-12 rsn: stol

 Step     27 Time=  5.20548E-01 Dt=  2.73973E-02 [y] conv_reason: 4
  newton =   1 [      50] linear =    85 [      7108] cuts =  0 [   0]
  --> SNES Linear/Non-Linear Iterations = 85 / 1
  --> SNES Residual: 0.150249E-12 0.225599E-16 0.874980E-14
  --> max change: dpmx=   1.4552E-11

 --> appending to hdf5 output file: 2D_flow-steady-state.h5
      0.04 Seconds to write HDF5 file.

== RICHARDS FLOW ===============================================================
  0 2r: 1.50E-13 2x: 0.00E+00 2u: 0.00E+00 ir: 8.75E-15 iu: 0.00E+00 rsn:   0
  1 2r: 1.50E-13 2x: 7.54E+06 2u: 3.31E-10 ir: 8.75E-15 iu: 7.38E-12 rsn: stol

 Step     28 Time=  5.47945E-01 Dt=  2.73973E-02 [y] conv_reason: 4
  newton =   1 [      51] linear =    81 [      7189] cuts =  0 [   0]
  --> SNES Linear/Non-Linear Iterations = 81 / 1
  --> SNES Residual: 0.150177E-12 0.225490E-16 0.874980E-14
  --> max change: dpmx=   1.4552E-11

 --> appending to hdf5 output file: 2D_flow-steady-state.h5
      0.05 Seconds to write HDF5 file.

== RICHARDS FLOW ===============================================================
  0 2r: 1.50E-13 2x: 0.00E+00 2u: 0.00E+00 ir: 8.75E-15 iu: 0.00E+00 rsn:   0
  1 2r: 1.50E-13 2x: 7.54E+06 2u: 3.31E-10 ir: 8.75E-15 iu: 7.40E-12 rsn: stol

 Step     29 Time=  5.75342E-01 Dt=  2.73973E-02 [y] conv_reason: 4
  newton =   1 [      52] linear =    90 [      7279] cuts =  0 [   0]
  --> SNES Linear/Non-Linear Iterations = 90 / 1
  --> SNES Residual: 0.150327E-12 0.225716E-16 0.874980E-14
  --> max change: dpmx=   1.4552E-11

 --> appending to hdf5 output file: 2D_flow-steady-state.h5
      0.05 Seconds to write HDF5 file.

== RICHARDS FLOW ===============================================================
  0 2r: 1.50E-13 2x: 0.00E+00 2u: 0.00E+00 ir: 8.75E-15 iu: 0.00E+00 rsn:   0
  1 2r: 1.51E-13 2x: 7.54E+06 2u: 3.31E-10 ir: 8.75E-15 iu: 7.42E-12 rsn: stol

 Step     30 Time=  6.02740E-01 Dt=  2.73973E-02 [y] conv_reason: 4
  newton =   1 [      53] linear =    86 [      7365] cuts =  0 [   0]
  --> SNES Linear/Non-Linear Iterations = 86 / 1
  --> SNES Residual: 0.151010E-12 0.226741E-16 0.874980E-14
  --> max change: dpmx=   1.4552E-11

 --> appending to hdf5 output file: 2D_flow-steady-state.h5
      0.04 Seconds to write HDF5 file.

== RICHARDS FLOW ===============================================================
  0 2r: 1.51E-13 2x: 0.00E+00 2u: 0.00E+00 ir: 8.75E-15 iu: 0.00E+00 rsn:   0
  1 2r: 1.51E-13 2x: 7.54E+06 2u: 3.31E-10 ir: 8.75E-15 iu: 7.38E-12 rsn: stol

 Step     31 Time=  6.30137E-01 Dt=  2.73973E-02 [y] conv_reason: 4
  newton =   1 [      54] linear =    93 [      7458] cuts =  0 [   0]
  --> SNES Linear/Non-Linear Iterations = 93 / 1
  --> SNES Residual: 0.151338E-12 0.227235E-16 0.874980E-14
  --> max change: dpmx=   1.4552E-11

 --> appending to hdf5 output file: 2D_flow-steady-state.h5
      0.05 Seconds to write HDF5 file.

== RICHARDS FLOW ===============================================================
  0 2r: 1.51E-13 2x: 0.00E+00 2u: 0.00E+00 ir: 8.75E-15 iu: 0.00E+00 rsn:   0
  1 2r: 1.50E-13 2x: 7.54E+06 2u: 3.31E-10 ir: 8.75E-15 iu: 7.73E-12 rsn: stol

 Step     32 Time=  6.57534E-01 Dt=  2.73973E-02 [y] conv_reason: 4
  newton =   1 [      55] linear =    39 [      7497] cuts =  0 [   0]
  --> SNES Linear/Non-Linear Iterations = 39 / 1
  --> SNES Residual: 0.149609E-12 0.224638E-16 0.874980E-14
  --> max change: dpmx=   1.4552E-11

 --> appending to hdf5 output file: 2D_flow-steady-state.h5
      0.04 Seconds to write HDF5 file.

== RICHARDS FLOW ===============================================================
  0 2r: 1.50E-13 2x: 0.00E+00 2u: 0.00E+00 ir: 8.75E-15 iu: 0.00E+00 rsn:   0
  1 2r: 1.50E-13 2x: 7.54E+06 2u: 3.34E-10 ir: 8.26E-15 iu: 7.93E-12 rsn: stol

 Step     33 Time=  6.84932E-01 Dt=  2.73973E-02 [y] conv_reason: 4
  newton =   1 [      56] linear =   145 [      7642] cuts =  0 [   0]
  --> SNES Linear/Non-Linear Iterations = 145 / 1
  --> SNES Residual: 0.150416E-12 0.225850E-16 0.825751E-14
  --> max change: dpmx=   1.4552E-11

 --> appending to hdf5 output file: 2D_flow-steady-state.h5
      0.04 Seconds to write HDF5 file.

== RICHARDS FLOW ===============================================================
  0 2r: 1.50E-13 2x: 0.00E+00 2u: 0.00E+00 ir: 8.26E-15 iu: 0.00E+00 rsn:   0
  1 2r: 1.49E-13 2x: 7.54E+06 2u: 3.31E-10 ir: 8.92E-15 iu: 7.60E-12 rsn: stol

 Step     34 Time=  7.12329E-01 Dt=  2.73973E-02 [y] conv_reason: 4
  newton =   1 [      57] linear =    50 [      7692] cuts =  0 [   0]
  --> SNES Linear/Non-Linear Iterations = 50 / 1
  --> SNES Residual: 0.148797E-12 0.223419E-16 0.892281E-14
  --> max change: dpmx=   1.4552E-11

 --> appending to hdf5 output file: 2D_flow-steady-state.h5
      0.04 Seconds to write HDF5 file.

== RICHARDS FLOW ===============================================================
  0 2r: 1.49E-13 2x: 0.00E+00 2u: 0.00E+00 ir: 8.92E-15 iu: 0.00E+00 rsn:   0
  1 2r: 1.51E-13 2x: 7.54E+06 2u: 3.32E-10 ir: 8.75E-15 iu: 7.59E-12 rsn: stol

 Step     35 Time=  7.39726E-01 Dt=  2.73973E-02 [y] conv_reason: 4
  newton =   1 [      58] linear =   114 [      7806] cuts =  0 [   0]
  --> SNES Linear/Non-Linear Iterations = 114 / 1
  --> SNES Residual: 0.151046E-12 0.226795E-16 0.874980E-14
  --> max change: dpmx=   1.4552E-11

 --> appending to hdf5 output file: 2D_flow-steady-state.h5
      0.03 Seconds to write HDF5 file.

== RICHARDS FLOW ===============================================================
  0 2r: 1.51E-13 2x: 0.00E+00 2u: 0.00E+00 ir: 8.75E-15 iu: 0.00E+00 rsn:   0
  1 2r: 1.50E-13 2x: 7.54E+06 2u: 3.31E-10 ir: 8.75E-15 iu: 7.72E-12 rsn: stol

 Step     36 Time=  7.67123E-01 Dt=  2.73973E-02 [y] conv_reason: 4
  newton =   1 [      59] linear =    46 [      7852] cuts =  0 [   0]
  --> SNES Linear/Non-Linear Iterations = 46 / 1
  --> SNES Residual: 0.150011E-12 0.225241E-16 0.874980E-14
  --> max change: dpmx=   1.4552E-11

 --> appending to hdf5 output file: 2D_flow-steady-state.h5
      0.03 Seconds to write HDF5 file.

== RICHARDS FLOW ===============================================================
  0 2r: 1.50E-13 2x: 0.00E+00 2u: 0.00E+00 ir: 8.75E-15 iu: 0.00E+00 rsn:   0
  1 2r: 1.51E-13 2x: 7.54E+06 2u: 3.32E-10 ir: 8.75E-15 iu: 7.67E-12 rsn: stol

 Step     37 Time=  7.94521E-01 Dt=  2.73973E-02 [y] conv_reason: 4
  newton =   1 [      60] linear =   133 [      7985] cuts =  0 [   0]
  --> SNES Linear/Non-Linear Iterations = 133 / 1
  --> SNES Residual: 0.151065E-12 0.226825E-16 0.874980E-14
  --> max change: dpmx=   1.4552E-11

 --> appending to hdf5 output file: 2D_flow-steady-state.h5
      0.04 Seconds to write HDF5 file.

== RICHARDS FLOW ===============================================================
  0 2r: 1.51E-13 2x: 0.00E+00 2u: 0.00E+00 ir: 8.75E-15 iu: 0.00E+00 rsn:   0
  1 2r: 1.50E-13 2x: 7.54E+06 2u: 3.31E-10 ir: 8.75E-15 iu: 7.67E-12 rsn: stol

 Step     38 Time=  8.21918E-01 Dt=  2.73973E-02 [y] conv_reason: 4
  newton =   1 [      61] linear =    53 [      8038] cuts =  0 [   0]
  --> SNES Linear/Non-Linear Iterations = 53 / 1
  --> SNES Residual: 0.149855E-12 0.225008E-16 0.874980E-14
  --> max change: dpmx=   1.4552E-11

 --> appending to hdf5 output file: 2D_flow-steady-state.h5
      0.03 Seconds to write HDF5 file.

== RICHARDS FLOW ===============================================================
  0 2r: 1.50E-13 2x: 0.00E+00 2u: 0.00E+00 ir: 8.75E-15 iu: 0.00E+00 rsn:   0
  1 2r: 1.51E-13 2x: 7.54E+06 2u: 3.32E-10 ir: 8.75E-15 iu: 7.74E-12 rsn: stol

 Step     39 Time=  8.49315E-01 Dt=  2.73973E-02 [y] conv_reason: 4
  newton =   1 [      62] linear =   146 [      8184] cuts =  0 [   0]
  --> SNES Linear/Non-Linear Iterations = 146 / 1
  --> SNES Residual: 0.151347E-12 0.227247E-16 0.874980E-14
  --> max change: dpmx=   1.4552E-11

 --> appending to hdf5 output file: 2D_flow-steady-state.h5
      0.04 Seconds to write HDF5 file.

== RICHARDS FLOW ===============================================================
  0 2r: 1.51E-13 2x: 0.00E+00 2u: 0.00E+00 ir: 8.75E-15 iu: 0.00E+00 rsn:   0
  1 2r: 1.50E-13 2x: 7.54E+06 2u: 3.31E-10 ir: 8.75E-15 iu: 7.73E-12 rsn: stol

 Step     40 Time=  8.76712E-01 Dt=  2.73973E-02 [y] conv_reason: 4
  newton =   1 [      63] linear =    39 [      8223] cuts =  0 [   0]
  --> SNES Linear/Non-Linear Iterations = 39 / 1
  --> SNES Residual: 0.149595E-12 0.224618E-16 0.874980E-14
  --> max change: dpmx=   1.4552E-11

 --> appending to hdf5 output file: 2D_flow-steady-state.h5
      0.04 Seconds to write HDF5 file.

== RICHARDS FLOW ===============================================================
  0 2r: 1.50E-13 2x: 0.00E+00 2u: 0.00E+00 ir: 8.75E-15 iu: 0.00E+00 rsn:   0
  1 2r: 1.51E-13 2x: 7.54E+06 2u: 3.32E-10 ir: 8.75E-15 iu: 7.83E-12 rsn: stol

 Step     41 Time=  9.04110E-01 Dt=  2.73973E-02 [y] conv_reason: 4
  newton =   1 [      64] linear =   158 [      8381] cuts =  0 [   0]
  --> SNES Linear/Non-Linear Iterations = 158 / 1
  --> SNES Residual: 0.151020E-12 0.226757E-16 0.874980E-14
  --> max change: dpmx=   1.4552E-11

 --> appending to hdf5 output file: 2D_flow-steady-state.h5
      0.05 Seconds to write HDF5 file.

== RICHARDS FLOW ===============================================================
  0 2r: 1.51E-13 2x: 0.00E+00 2u: 0.00E+00 ir: 8.75E-15 iu: 0.00E+00 rsn:   0
  1 2r: 1.50E-13 2x: 7.54E+06 2u: 3.32E-10 ir: 8.75E-15 iu: 7.71E-12 rsn: stol

 Step     42 Time=  9.31507E-01 Dt=  2.73973E-02 [y] conv_reason: 4
  newton =   1 [      65] linear =    36 [      8417] cuts =  0 [   0]
  --> SNES Linear/Non-Linear Iterations = 36 / 1
  --> SNES Residual: 0.149896E-12 0.225070E-16 0.874980E-14
  --> max change: dpmx=   1.4552E-11

 --> appending to hdf5 output file: 2D_flow-steady-state.h5
      0.04 Seconds to write HDF5 file.

== RICHARDS FLOW ===============================================================
  0 2r: 1.50E-13 2x: 0.00E+00 2u: 0.00E+00 ir: 8.75E-15 iu: 0.00E+00 rsn:   0
  1 2r: 1.51E-13 2x: 7.54E+06 2u: 3.32E-10 ir: 8.75E-15 iu: 7.58E-12 rsn: stol

 Step     43 Time=  9.58904E-01 Dt=  2.73973E-02 [y] conv_reason: 4
  newton =   1 [      66] linear =   142 [      8559] cuts =  0 [   0]
  --> SNES Linear/Non-Linear Iterations = 142 / 1
  --> SNES Residual: 0.151040E-12 0.226786E-16 0.874980E-14
  --> max change: dpmx=   1.4552E-11

 --> appending to hdf5 output file: 2D_flow-steady-state.h5
      0.04 Seconds to write HDF5 file.

== RICHARDS FLOW ===============================================================
  0 2r: 1.51E-13 2x: 0.00E+00 2u: 0.00E+00 ir: 8.75E-15 iu: 0.00E+00 rsn:   0
  1 2r: 1.50E-13 2x: 7.54E+06 2u: 3.31E-10 ir: 8.75E-15 iu: 7.68E-12 rsn: stol

 Step     44 Time=  9.86301E-01 Dt=  2.73973E-02 [y] conv_reason: 4
  newton =   1 [      67] linear =    41 [      8600] cuts =  0 [   0]
  --> SNES Linear/Non-Linear Iterations = 41 / 1
  --> SNES Residual: 0.150132E-12 0.225423E-16 0.874980E-14
  --> max change: dpmx=   1.4552E-11

 --> appending to hdf5 output file: 2D_flow-steady-state.h5
      0.04 Seconds to write HDF5 file.

== RICHARDS FLOW ===============================================================
  0 2r: 1.50E-13 2x: 0.00E+00 2u: 0.00E+00 ir: 8.75E-15 iu: 0.00E+00 rsn:   0
  1 2r: 1.51E-13 2x: 7.54E+06 2u: 3.32E-10 ir: 8.75E-15 iu: 7.72E-12 rsn: stol

 Step     45 Time=  1.00000E+00 Dt=  1.36986E-02 [y] conv_reason: 4
  newton =   1 [      68] linear =   124 [      8724] cuts =  0 [   0]
  --> SNES Linear/Non-Linear Iterations = 124 / 1
  --> SNES Residual: 0.151037E-12 0.226782E-16 0.874980E-14
  --> max change: dpmx=   1.4552E-11

 --> appending to hdf5 output file: 2D_flow-steady-state.h5
      0.03 Seconds to write HDF5 file.

== RICHARDS FLOW ===============================================================
  0 2r: 1.51E-13 2x: 0.00E+00 2u: 0.00E+00 ir: 8.75E-15 iu: 0.00E+00 rsn:   0
  1 2r: 1.50E-13 2x: 7.54E+06 2u: 3.31E-10 ir: 8.75E-15 iu: 7.69E-12 rsn: stol

 Step     46 Time=  1.02922E+00 Dt=  2.92237E-02 [y] conv_reason: 4
  newton =   1 [      69] linear =    39 [      8763] cuts =  0 [   0]
  --> SNES Linear/Non-Linear Iterations = 39 / 1
  --> SNES Residual: 0.150132E-12 0.225423E-16 0.874980E-14
  --> max change: dpmx=   1.4552E-11

== RICHARDS FLOW ===============================================================
  0 2r: 1.50E-13 2x: 0.00E+00 2u: 0.00E+00 ir: 8.75E-15 iu: 0.00E+00 rsn:   0
  1 2r: 1.51E-13 2x: 7.54E+06 2u: 3.33E-10 ir: 8.75E-15 iu: 7.88E-12 rsn: stol

 Step     47 Time=  1.08767E+00 Dt=  5.84475E-02 [y] conv_reason: 4
  newton =   1 [      70] linear =   133 [      8896] cuts =  0 [   0]
  --> SNES Linear/Non-Linear Iterations = 133 / 1
  --> SNES Residual: 0.151139E-12 0.226935E-16 0.874980E-14
  --> max change: dpmx=   1.4552E-11

== RICHARDS FLOW ===============================================================
  0 2r: 1.51E-13 2x: 0.00E+00 2u: 0.00E+00 ir: 8.75E-15 iu: 0.00E+00 rsn:   0
  1 2r: 1.50E-13 2x: 7.54E+06 2u: 3.32E-10 ir: 8.75E-15 iu: 7.68E-12 rsn: stol

 Step     48 Time=  1.20457E+00 Dt=  1.16895E-01 [y] conv_reason: 4
  newton =   1 [      71] linear =    39 [      8935] cuts =  0 [   0]
  --> SNES Linear/Non-Linear Iterations = 39 / 1
  --> SNES Residual: 0.150345E-12 0.225743E-16 0.874980E-14
  --> max change: dpmx=   1.4552E-11

== RICHARDS FLOW ===============================================================
  0 2r: 1.50E-13 2x: 0.00E+00 2u: 0.00E+00 ir: 8.75E-15 iu: 0.00E+00 rsn:   0
  1 2r: 1.51E-13 2x: 7.54E+06 2u: 3.31E-10 ir: 8.92E-15 iu: 7.48E-12 rsn: stol

 Step     49 Time=  1.27397E+00 Dt=  6.94064E-02 [y] conv_reason: 4
  newton =   1 [      72] linear =    83 [      9018] cuts =  0 [   0]
  --> SNES Linear/Non-Linear Iterations = 83 / 1
  --> SNES Residual: 0.151145E-12 0.226944E-16 0.892281E-14
  --> max change: dpmx=   1.4552E-11

 --> appending to hdf5 output file: 2D_flow-steady-state.h5
      0.04 Seconds to write HDF5 file.

== RICHARDS FLOW ===============================================================
  0 2r: 1.51E-13 2x: 0.00E+00 2u: 0.00E+00 ir: 8.92E-15 iu: 0.00E+00 rsn:   0
  1 2r: 1.51E-13 2x: 7.54E+06 2u: 3.31E-10 ir: 8.75E-15 iu: 7.45E-12 rsn: stol

 Step     50 Time=  1.50776E+00 Dt=  2.33790E-01 [y] conv_reason: 4
  newton =   1 [      73] linear =   110 [      9128] cuts =  0 [   0]
  --> SNES Linear/Non-Linear Iterations = 110 / 1
  --> SNES Residual: 0.151156E-12 0.226961E-16 0.874980E-14
  --> max change: dpmx=   1.4552E-11

== RICHARDS FLOW ===============================================================
  0 2r: 1.51E-13 2x: 0.00E+00 2u: 0.00E+00 ir: 8.75E-15 iu: 0.00E+00 rsn:   0
  1 2r: 1.51E-13 2x: 7.54E+06 2u: 3.31E-10 ir: 8.92E-15 iu: 7.41E-12 rsn: stol

 Step     51 Time=  1.54795E+00 Dt=  4.01826E-02 [y] conv_reason: 4
  newton =   1 [      74] linear =   100 [      9228] cuts =  0 [   0]
  --> SNES Linear/Non-Linear Iterations = 100 / 1
  --> SNES Residual: 0.150658E-12 0.226214E-16 0.892281E-14
  --> max change: dpmx=   1.4552E-11

 --> appending to hdf5 output file: 2D_flow-steady-state.h5
      0.04 Seconds to write HDF5 file.

== RICHARDS FLOW ===============================================================
  0 2r: 1.51E-13 2x: 0.00E+00 2u: 0.00E+00 ir: 8.92E-15 iu: 0.00E+00 rsn:   0
  1 2r: 1.51E-13 2x: 7.54E+06 2u: 3.31E-10 ir: 8.92E-15 iu: 7.40E-12 rsn: stol

 Step     52 Time=  1.82192E+00 Dt=  2.73973E-01 [y] conv_reason: 4
  newton =   1 [      75] linear =    82 [      9310] cuts =  0 [   0]
  --> SNES Linear/Non-Linear Iterations = 82 / 1
  --> SNES Residual: 0.151011E-12 0.226744E-16 0.892281E-14
  --> max change: dpmx=   1.4552E-11

 --> appending to hdf5 output file: 2D_flow-steady-state.h5
      0.04 Seconds to write HDF5 file.

== RICHARDS FLOW ===============================================================
  0 2r: 1.51E-13 2x: 0.00E+00 2u: 0.00E+00 ir: 8.92E-15 iu: 0.00E+00 rsn:   0
  1 2r: 1.52E-13 2x: 7.54E+06 2u: 3.31E-10 ir: 8.75E-15 iu: 7.41E-12 rsn: stol

 Step     53 Time=  2.00000E+00 Dt=  1.78082E-01 [y] conv_reason: 4
  newton =   1 [      76] linear =   101 [      9411] cuts =  0 [   0]
  --> SNES Linear/Non-Linear Iterations = 101 / 1
  --> SNES Residual: 0.151700E-12 0.227778E-16 0.874980E-14
  --> max change: dpmx=   1.4552E-11

 --> appending to hdf5 output file: 2D_flow-steady-state.h5
      0.04 Seconds to write HDF5 file.

== RICHARDS FLOW ===============================================================
  0 2r: 1.52E-13 2x: 0.00E+00 2u: 0.00E+00 ir: 8.75E-15 iu: 0.00E+00 rsn:   0
  1 2r: 1.51E-13 2x: 7.54E+06 2u: 3.31E-10 ir: 8.92E-15 iu: 7.44E-12 rsn: stol

 Step     54 Time=  2.46758E+00 Dt=  4.67580E-01 [y] conv_reason: 4
  newton =   1 [      77] linear =   101 [      9512] cuts =  0 [   0]
  --> SNES Linear/Non-Linear Iterations = 101 / 1
  --> SNES Residual: 0.151304E-12 0.227184E-16 0.892281E-14
  --> max change: dpmx=   1.4552E-11

== RICHARDS FLOW ===============================================================
  0 2r: 1.51E-13 2x: 0.00E+00 2u: 0.00E+00 ir: 8.92E-15 iu: 0.00E+00 rsn:   0
  1 2r: 1.50E-13 2x: 7.54E+06 2u: 3.31E-10 ir: 8.92E-15 iu: 7.39E-12 rsn: stol

 Step     55 Time=  3.00000E+00 Dt=  5.32420E-01 [y] conv_reason: 4
  newton =   1 [      78] linear =    74 [      9586] cuts =  0 [   0]
  --> SNES Linear/Non-Linear Iterations = 74 / 1
  --> SNES Residual: 0.150495E-12 0.225969E-16 0.892281E-14
  --> max change: dpmx=   1.4552E-11

 --> appending to hdf5 output file: 2D_flow-steady-state.h5
      0.05 Seconds to write HDF5 file.

== RICHARDS FLOW ===============================================================
  0 2r: 1.50E-13 2x: 0.00E+00 2u: 0.00E+00 ir: 8.92E-15 iu: 0.00E+00 rsn:   0
  1 2r: 1.51E-13 2x: 7.54E+06 2u: 3.32E-10 ir: 8.75E-15 iu: 7.66E-12 rsn: stol

 Step     56 Time=  4.00000E+00 Dt=  1.00000E+00 [y] conv_reason: 4
  newton =   1 [      79] linear =   122 [      9708] cuts =  0 [   0]
  --> SNES Linear/Non-Linear Iterations = 122 / 1
  --> SNES Residual: 0.151070E-12 0.226831E-16 0.874980E-14
  --> max change: dpmx=   1.4552E-11

 --> appending to hdf5 output file: 2D_flow-steady-state.h5
      0.04 Seconds to write HDF5 file.

== RICHARDS FLOW ===============================================================
  0 2r: 1.51E-13 2x: 0.00E+00 2u: 0.00E+00 ir: 8.75E-15 iu: 0.00E+00 rsn:   0
  1 2r: 1.51E-13 2x: 7.54E+06 2u: 3.31E-10 ir: 8.92E-15 iu: 7.45E-12 rsn: stol

 Step     57 Time=  5.00000E+00 Dt=  1.00000E+00 [y] conv_reason: 4
  newton =   1 [      80] linear =    86 [      9794] cuts =  0 [   0]
  --> SNES Linear/Non-Linear Iterations = 86 / 1
  --> SNES Residual: 0.150514E-12 0.225997E-16 0.892281E-14
  --> max change: dpmx=   1.4552E-11

 --> appending to hdf5 output file: 2D_flow-steady-state.h5
      0.08 Seconds to write HDF5 file.

== RICHARDS FLOW ===============================================================
  0 2r: 1.51E-13 2x: 0.00E+00 2u: 0.00E+00 ir: 8.92E-15 iu: 0.00E+00 rsn:   0
  1 2r: 1.51E-13 2x: 7.54E+06 2u: 3.31E-10 ir: 8.75E-15 iu: 7.42E-12 rsn: stol

 Step     58 Time=  6.00000E+00 Dt=  1.00000E+00 [y] conv_reason: 4
  newton =   1 [      81] linear =    92 [      9886] cuts =  0 [   0]
  --> SNES Linear/Non-Linear Iterations = 92 / 1
  --> SNES Residual: 0.151103E-12 0.226882E-16 0.874980E-14
  --> max change: dpmx=   1.4552E-11

 --> appending to hdf5 output file: 2D_flow-steady-state.h5
      0.04 Seconds to write HDF5 file.

== RICHARDS FLOW ===============================================================
  0 2r: 1.51E-13 2x: 0.00E+00 2u: 0.00E+00 ir: 8.75E-15 iu: 0.00E+00 rsn:   0
  1 2r: 1.51E-13 2x: 7.54E+06 2u: 3.31E-10 ir: 8.92E-15 iu: 7.38E-12 rsn: stol

 Step     59 Time=  7.00000E+00 Dt=  1.00000E+00 [y] conv_reason: 4
  newton =   1 [      82] linear =    87 [      9973] cuts =  0 [   0]
  --> SNES Linear/Non-Linear Iterations = 87 / 1
  --> SNES Residual: 0.151031E-12 0.226773E-16 0.892281E-14
  --> max change: dpmx=   1.4552E-11

 --> appending to hdf5 output file: 2D_flow-steady-state.h5
      0.04 Seconds to write HDF5 file.

== RICHARDS FLOW ===============================================================
  0 2r: 1.51E-13 2x: 0.00E+00 2u: 0.00E+00 ir: 8.92E-15 iu: 0.00E+00 rsn:   0
  1 2r: 1.50E-13 2x: 7.54E+06 2u: 3.31E-10 ir: 8.75E-15 iu: 7.37E-12 rsn: stol

 Step     60 Time=  8.00000E+00 Dt=  1.00000E+00 [y] conv_reason: 4
  newton =   1 [      83] linear =    80 [     10053] cuts =  0 [   0]
  --> SNES Linear/Non-Linear Iterations = 80 / 1
  --> SNES Residual: 0.150478E-12 0.225942E-16 0.874980E-14
  --> max change: dpmx=   1.4552E-11

 --> appending to hdf5 output file: 2D_flow-steady-state.h5
      0.03 Seconds to write HDF5 file.

== RICHARDS FLOW ===============================================================
  0 2r: 1.50E-13 2x: 0.00E+00 2u: 0.00E+00 ir: 8.75E-15 iu: 0.00E+00 rsn:   0
  1 2r: 1.51E-13 2x: 7.54E+06 2u: 3.31E-10 ir: 8.75E-15 iu: 7.32E-12 rsn: stol

 Step     61 Time=  9.00000E+00 Dt=  1.00000E+00 [y] conv_reason: 4
  newton =   1 [      84] linear =    90 [     10143] cuts =  0 [   0]
  --> SNES Linear/Non-Linear Iterations = 90 / 1
  --> SNES Residual: 0.151063E-12 0.226822E-16 0.874980E-14
  --> max change: dpmx=   1.4552E-11

 --> appending to hdf5 output file: 2D_flow-steady-state.h5
      0.03 Seconds to write HDF5 file.

== RICHARDS FLOW ===============================================================
  0 2r: 1.51E-13 2x: 0.00E+00 2u: 0.00E+00 ir: 8.75E-15 iu: 0.00E+00 rsn:   0
  1 2r: 1.51E-13 2x: 7.54E+06 2u: 3.31E-10 ir: 8.75E-15 iu: 7.41E-12 rsn: stol

 Step     62 Time=  1.00000E+01 Dt=  1.00000E+00 [y] conv_reason: 4
  newton =   1 [      85] linear =    95 [     10238] cuts =  0 [   0]
  --> SNES Linear/Non-Linear Iterations = 95 / 1
  --> SNES Residual: 0.151291E-12 0.227164E-16 0.874980E-14
  --> max change: dpmx=   1.4552E-11

 --> appending to hdf5 output file: 2D_flow-steady-state.h5
      0.03 Seconds to write HDF5 file.

== RICHARDS FLOW ===============================================================
  0 2r: 1.51E-13 2x: 0.00E+00 2u: 0.00E+00 ir: 8.75E-15 iu: 0.00E+00 rsn:   0
  1 2r: 1.50E-13 2x: 7.54E+06 2u: 3.31E-10 ir: 8.75E-15 iu: 7.73E-12 rsn: stol

 Step     63 Time=  1.10000E+01 Dt=  1.00000E+00 [y] conv_reason: 4
  newton =   1 [      86] linear =    45 [     10283] cuts =  0 [   0]
  --> SNES Linear/Non-Linear Iterations = 45 / 1
  --> SNES Residual: 0.149612E-12 0.224643E-16 0.874980E-14
  --> max change: dpmx=   1.4552E-11

 --> appending to hdf5 output file: 2D_flow-steady-state.h5
      0.03 Seconds to write HDF5 file.

== RICHARDS FLOW ===============================================================
  0 2r: 1.50E-13 2x: 0.00E+00 2u: 0.00E+00 ir: 8.75E-15 iu: 0.00E+00 rsn:   0
  1 2r: 1.51E-13 2x: 7.54E+06 2u: 3.33E-10 ir: 8.75E-15 iu: 7.87E-12 rsn: stol

 Step     64 Time=  1.20000E+01 Dt=  1.00000E+00 [y] conv_reason: 4
  newton =   1 [      87] linear =   149 [     10432] cuts =  0 [   0]
  --> SNES Linear/Non-Linear Iterations = 149 / 1
  --> SNES Residual: 0.150938E-12 0.226634E-16 0.874980E-14
  --> max change: dpmx=   1.4552E-11

 --> appending to hdf5 output file: 2D_flow-steady-state.h5
      0.04 Seconds to write HDF5 file.

== RICHARDS FLOW ===============================================================
  0 2r: 1.51E-13 2x: 0.00E+00 2u: 0.00E+00 ir: 8.75E-15 iu: 0.00E+00 rsn:   0
  1 2r: 1.50E-13 2x: 7.54E+06 2u: 3.31E-10 ir: 8.92E-15 iu: 7.50E-12 rsn: stol

 Step     65 Time=  1.30000E+01 Dt=  1.00000E+00 [y] conv_reason: 4
  newton =   1 [      88] linear =    89 [     10521] cuts =  0 [   0]
  --> SNES Linear/Non-Linear Iterations = 89 / 1
  --> SNES Residual: 0.149881E-12 0.225047E-16 0.892281E-14
  --> max change: dpmx=   1.4552E-11

 --> appending to hdf5 output file: 2D_flow-steady-state.h5
      0.03 Seconds to write HDF5 file.

== RICHARDS FLOW ===============================================================
  0 2r: 1.50E-13 2x: 0.00E+00 2u: 0.00E+00 ir: 8.92E-15 iu: 0.00E+00 rsn:   0
  1 2r: 1.51E-13 2x: 7.54E+06 2u: 3.31E-10 ir: 8.75E-15 iu: 7.47E-12 rsn: stol

 Step     66 Time=  1.40000E+01 Dt=  1.00000E+00 [y] conv_reason: 4
  newton =   1 [      89] linear =    99 [     10620] cuts =  0 [   0]
  --> SNES Linear/Non-Linear Iterations = 99 / 1
  --> SNES Residual: 0.150777E-12 0.226392E-16 0.874980E-14
  --> max change: dpmx=   1.4552E-11

 --> appending to hdf5 output file: 2D_flow-steady-state.h5
      0.05 Seconds to write HDF5 file.

== RICHARDS FLOW ===============================================================
  0 2r: 1.51E-13 2x: 0.00E+00 2u: 0.00E+00 ir: 8.75E-15 iu: 0.00E+00 rsn:   0
  1 2r: 1.50E-13 2x: 7.54E+06 2u: 3.31E-10 ir: 8.92E-15 iu: 7.48E-12 rsn: stol

 Step     67 Time=  1.50000E+01 Dt=  1.00000E+00 [y] conv_reason: 4
  newton =   1 [      90] linear =    74 [     10694] cuts =  0 [   0]
  --> SNES Linear/Non-Linear Iterations = 74 / 1
  --> SNES Residual: 0.149907E-12 0.225086E-16 0.892281E-14
  --> max change: dpmx=   1.4552E-11

 --> appending to hdf5 output file: 2D_flow-steady-state.h5
      0.03 Seconds to write HDF5 file.

== RICHARDS FLOW ===============================================================
  0 2r: 1.50E-13 2x: 0.00E+00 2u: 0.00E+00 ir: 8.92E-15 iu: 0.00E+00 rsn:   0
  1 2r: 1.51E-13 2x: 7.54E+06 2u: 3.31E-10 ir: 8.75E-15 iu: 7.51E-12 rsn: stol

 Step     68 Time=  1.60000E+01 Dt=  1.00000E+00 [y] conv_reason: 4
  newton =   1 [      91] linear =   116 [     10810] cuts =  0 [   0]
  --> SNES Linear/Non-Linear Iterations = 116 / 1
  --> SNES Residual: 0.150897E-12 0.226572E-16 0.874980E-14
  --> max change: dpmx=   1.4552E-11

 --> appending to hdf5 output file: 2D_flow-steady-state.h5
      0.03 Seconds to write HDF5 file.

== RICHARDS FLOW ===============================================================
  0 2r: 1.51E-13 2x: 0.00E+00 2u: 0.00E+00 ir: 8.75E-15 iu: 0.00E+00 rsn:   0
  1 2r: 1.51E-13 2x: 7.54E+06 2u: 3.31E-10 ir: 8.92E-15 iu: 7.42E-12 rsn: stol

 Step     69 Time=  1.70000E+01 Dt=  1.00000E+00 [y] conv_reason: 4
  newton =   1 [      92] linear =    97 [     10907] cuts =  0 [   0]
  --> SNES Linear/Non-Linear Iterations = 97 / 1
  --> SNES Residual: 0.151029E-12 0.226771E-16 0.892281E-14
  --> max change: dpmx=   1.4552E-11

 --> appending to hdf5 output file: 2D_flow-steady-state.h5
      0.04 Seconds to write HDF5 file.

== RICHARDS FLOW ===============================================================
  0 2r: 1.51E-13 2x: 0.00E+00 2u: 0.00E+00 ir: 8.92E-15 iu: 0.00E+00 rsn:   0
  1 2r: 1.51E-13 2x: 7.54E+06 2u: 3.31E-10 ir: 8.75E-15 iu: 7.38E-12 rsn: stol

 Step     70 Time=  1.80000E+01 Dt=  1.00000E+00 [y] conv_reason: 4
  newton =   1 [      93] linear =    88 [     10995] cuts =  0 [   0]
  --> SNES Linear/Non-Linear Iterations = 88 / 1
  --> SNES Residual: 0.151163E-12 0.226971E-16 0.874980E-14
  --> max change: dpmx=   1.4552E-11

 --> appending to hdf5 output file: 2D_flow-steady-state.h5
      0.03 Seconds to write HDF5 file.

== RICHARDS FLOW ===============================================================
  0 2r: 1.51E-13 2x: 0.00E+00 2u: 0.00E+00 ir: 8.75E-15 iu: 0.00E+00 rsn:   0
  1 2r: 1.51E-13 2x: 7.54E+06 2u: 3.31E-10 ir: 8.75E-15 iu: 7.32E-12 rsn: stol

 Step     71 Time=  1.90000E+01 Dt=  1.00000E+00 [y] conv_reason: 4
  newton =   1 [      94] linear =    87 [     11082] cuts =  0 [   0]
  --> SNES Linear/Non-Linear Iterations = 87 / 1
  --> SNES Residual: 0.150972E-12 0.226685E-16 0.874980E-14
  --> max change: dpmx=   1.4552E-11

 --> appending to hdf5 output file: 2D_flow-steady-state.h5
      0.05 Seconds to write HDF5 file.

== RICHARDS FLOW ===============================================================
  0 2r: 1.51E-13 2x: 0.00E+00 2u: 0.00E+00 ir: 8.75E-15 iu: 0.00E+00 rsn:   0
  1 2r: 1.51E-13 2x: 7.54E+06 2u: 3.31E-10 ir: 8.75E-15 iu: 7.31E-12 rsn: stol

 Step     72 Time=  2.00000E+01 Dt=  1.00000E+00 [y] conv_reason: 4
  newton =   1 [      95] linear =    89 [     11171] cuts =  0 [   0]
  --> SNES Linear/Non-Linear Iterations = 89 / 1
  --> SNES Residual: 0.151069E-12 0.226830E-16 0.874980E-14
  --> max change: dpmx=   1.4552E-11

 --> appending to hdf5 output file: 2D_flow-steady-state.h5
      0.03 Seconds to write HDF5 file.

== RICHARDS FLOW ===============================================================
  0 2r: 1.51E-13 2x: 0.00E+00 2u: 0.00E+00 ir: 8.75E-15 iu: 0.00E+00 rsn:   0
  1 2r: 1.51E-13 2x: 7.54E+06 2u: 3.31E-10 ir: 8.75E-15 iu: 7.36E-12 rsn: stol

 Step     73 Time=  2.10000E+01 Dt=  1.00000E+00 [y] conv_reason: 4
  newton =   1 [      96] linear =    90 [     11261] cuts =  0 [   0]
  --> SNES Linear/Non-Linear Iterations = 90 / 1
  --> SNES Residual: 0.150897E-12 0.226572E-16 0.874980E-14
  --> max change: dpmx=   1.4552E-11

 --> appending to hdf5 output file: 2D_flow-steady-state.h5
      0.04 Seconds to write HDF5 file.

== RICHARDS FLOW ===============================================================
  0 2r: 1.51E-13 2x: 0.00E+00 2u: 0.00E+00 ir: 8.75E-15 iu: 0.00E+00 rsn:   0
  1 2r: 1.51E-13 2x: 7.54E+06 2u: 3.31E-10 ir: 8.75E-15 iu: 7.39E-12 rsn: stol

 Step     74 Time=  2.20000E+01 Dt=  1.00000E+00 [y] conv_reason: 4
  newton =   1 [      97] linear =   101 [     11362] cuts =  0 [   0]
  --> SNES Linear/Non-Linear Iterations = 101 / 1
  --> SNES Residual: 0.151338E-12 0.227235E-16 0.874980E-14
  --> max change: dpmx=   1.4552E-11

 --> appending to hdf5 output file: 2D_flow-steady-state.h5
      0.03 Seconds to write HDF5 file.

== RICHARDS FLOW ===============================================================
  0 2r: 1.51E-13 2x: 0.00E+00 2u: 0.00E+00 ir: 8.75E-15 iu: 0.00E+00 rsn:   0
  1 2r: 1.50E-13 2x: 7.54E+06 2u: 3.31E-10 ir: 8.75E-15 iu: 7.72E-12 rsn: stol

 Step     75 Time=  2.30000E+01 Dt=  1.00000E+00 [y] conv_reason: 4
  newton =   1 [      98] linear =    51 [     11413] cuts =  0 [   0]
  --> SNES Linear/Non-Linear Iterations = 51 / 1
  --> SNES Residual: 0.149761E-12 0.224867E-16 0.874980E-14
  --> max change: dpmx=   1.4552E-11

 --> appending to hdf5 output file: 2D_flow-steady-state.h5
      0.03 Seconds to write HDF5 file.

== RICHARDS FLOW ===============================================================
  0 2r: 1.50E-13 2x: 0.00E+00 2u: 0.00E+00 ir: 8.75E-15 iu: 0.00E+00 rsn:   0
  1 2r: 1.51E-13 2x: 7.54E+06 2u: 3.32E-10 ir: 8.75E-15 iu: 7.77E-12 rsn: stol

 Step     76 Time=  2.40000E+01 Dt=  1.00000E+00 [y] conv_reason: 4
  newton =   1 [      99] linear =   125 [     11538] cuts =  0 [   0]
  --> SNES Linear/Non-Linear Iterations = 125 / 1
  --> SNES Residual: 0.151320E-12 0.227207E-16 0.874980E-14
  --> max change: dpmx=   1.4552E-11

 --> appending to hdf5 output file: 2D_flow-steady-state.h5
      0.03 Seconds to write HDF5 file.

== RICHARDS FLOW ===============================================================
  0 2r: 1.51E-13 2x: 0.00E+00 2u: 0.00E+00 ir: 8.75E-15 iu: 0.00E+00 rsn:   0
  1 2r: 1.50E-13 2x: 7.54E+06 2u: 3.31E-10 ir: 8.75E-15 iu: 7.73E-12 rsn: stol

 Step     77 Time=  2.50000E+01 Dt=  1.00000E+00 [y] conv_reason: 4
  newton =   1 [     100] linear =    42 [     11580] cuts =  0 [   0]
  --> SNES Linear/Non-Linear Iterations = 42 / 1
  --> SNES Residual: 0.149649E-12 0.224698E-16 0.874980E-14
  --> max change: dpmx=   1.4552E-11

 --> appending to hdf5 output file: 2D_flow-steady-state.h5
      0.04 Seconds to write HDF5 file.

== RICHARDS FLOW ===============================================================
  0 2r: 1.50E-13 2x: 0.00E+00 2u: 0.00E+00 ir: 8.75E-15 iu: 0.00E+00 rsn:   0
  1 2r: 1.51E-13 2x: 7.54E+06 2u: 3.32E-10 ir: 8.75E-15 iu: 7.73E-12 rsn: stol

 Step     78 Time=  2.60000E+01 Dt=  1.00000E+00 [y] conv_reason: 4
  newton =   1 [     101] linear =   122 [     11702] cuts =  0 [   0]
  --> SNES Linear/Non-Linear Iterations = 122 / 1
  --> SNES Residual: 0.151231E-12 0.227073E-16 0.874980E-14
  --> max change: dpmx=   1.4552E-11

 --> appending to hdf5 output file: 2D_flow-steady-state.h5
      0.03 Seconds to write HDF5 file.

== RICHARDS FLOW ===============================================================
  0 2r: 1.51E-13 2x: 0.00E+00 2u: 0.00E+00 ir: 8.75E-15 iu: 0.00E+00 rsn:   0
  1 2r: 1.50E-13 2x: 7.54E+06 2u: 3.31E-10 ir: 8.75E-15 iu: 7.71E-12 rsn: stol

 Step     79 Time=  2.70000E+01 Dt=  1.00000E+00 [y] conv_reason: 4
  newton =   1 [     102] linear =    45 [     11747] cuts =  0 [   0]
  --> SNES Linear/Non-Linear Iterations = 45 / 1
  --> SNES Residual: 0.150242E-12 0.225589E-16 0.874980E-14
  --> max change: dpmx=   1.4552E-11

 --> appending to hdf5 output file: 2D_flow-steady-state.h5
      0.04 Seconds to write HDF5 file.

== RICHARDS FLOW ===============================================================
  0 2r: 1.50E-13 2x: 0.00E+00 2u: 0.00E+00 ir: 8.75E-15 iu: 0.00E+00 rsn:   0
  1 2r: 1.51E-13 2x: 7.54E+06 2u: 3.32E-10 ir: 8.75E-15 iu: 7.80E-12 rsn: stol

 Step     80 Time=  2.80000E+01 Dt=  1.00000E+00 [y] conv_reason: 4
  newton =   1 [     103] linear =   138 [     11885] cuts =  0 [   0]
  --> SNES Linear/Non-Linear Iterations = 138 / 1
  --> SNES Residual: 0.151347E-12 0.227247E-16 0.874980E-14
  --> max change: dpmx=   1.4552E-11

 --> appending to hdf5 output file: 2D_flow-steady-state.h5
      0.03 Seconds to write HDF5 file.

== RICHARDS FLOW ===============================================================
  0 2r: 1.51E-13 2x: 0.00E+00 2u: 0.00E+00 ir: 8.75E-15 iu: 0.00E+00 rsn:   0
  1 2r: 1.50E-13 2x: 7.54E+06 2u: 3.31E-10 ir: 8.75E-15 iu: 7.73E-12 rsn: stol

 Step     81 Time=  2.90000E+01 Dt=  1.00000E+00 [y] conv_reason: 4
  newton =   1 [     104] linear =    36 [     11921] cuts =  0 [   0]
  --> SNES Linear/Non-Linear Iterations = 36 / 1
  --> SNES Residual: 0.149619E-12 0.224654E-16 0.874980E-14
  --> max change: dpmx=   1.4552E-11

 --> appending to hdf5 output file: 2D_flow-steady-state.h5
      0.04 Seconds to write HDF5 file.

== RICHARDS FLOW ===============================================================
  0 2r: 1.50E-13 2x: 0.00E+00 2u: 0.00E+00 ir: 8.75E-15 iu: 0.00E+00 rsn:   0
  1 2r: 1.51E-13 2x: 7.54E+06 2u: 3.32E-10 ir: 8.75E-15 iu: 7.82E-12 rsn: stol

 Step     82 Time=  3.00000E+01 Dt=  1.00000E+00 [y] conv_reason: 4
  newton =   1 [     105] linear =   133 [     12054] cuts =  0 [   0]
  --> SNES Linear/Non-Linear Iterations = 133 / 1
  --> SNES Residual: 0.151349E-12 0.227250E-16 0.874980E-14
  --> max change: dpmx=   1.4552E-11

 --> appending to hdf5 output file: 2D_flow-steady-state.h5
      0.03 Seconds to write HDF5 file.

== RICHARDS FLOW ===============================================================
  0 2r: 1.51E-13 2x: 0.00E+00 2u: 0.00E+00 ir: 8.75E-15 iu: 0.00E+00 rsn:   0
  1 2r: 1.50E-13 2x: 7.54E+06 2u: 3.31E-10 ir: 8.75E-15 iu: 7.72E-12 rsn: stol

 Step     83 Time=  3.10000E+01 Dt=  1.00000E+00 [y] conv_reason: 4
  newton =   1 [     106] linear =    37 [     12091] cuts =  0 [   0]
  --> SNES Linear/Non-Linear Iterations = 37 / 1
  --> SNES Residual: 0.149821E-12 0.224957E-16 0.874980E-14
  --> max change: dpmx=   1.4552E-11

 --> appending to hdf5 output file: 2D_flow-steady-state.h5
      0.04 Seconds to write HDF5 file.

== RICHARDS FLOW ===============================================================
  0 2r: 1.50E-13 2x: 0.00E+00 2u: 0.00E+00 ir: 8.75E-15 iu: 0.00E+00 rsn:   0
  1 2r: 1.51E-13 2x: 7.54E+06 2u: 3.32E-10 ir: 8.75E-15 iu: 7.74E-12 rsn: stol

 Step     84 Time=  3.20000E+01 Dt=  1.00000E+00 [y] conv_reason: 4
  newton =   1 [     107] linear =   145 [     12236] cuts =  0 [   0]
  --> SNES Linear/Non-Linear Iterations = 145 / 1
  --> SNES Residual: 0.151289E-12 0.227160E-16 0.874980E-14
  --> max change: dpmx=   1.4552E-11

 --> appending to hdf5 output file: 2D_flow-steady-state.h5
      0.04 Seconds to write HDF5 file.

== RICHARDS FLOW ===============================================================
  0 2r: 1.51E-13 2x: 0.00E+00 2u: 0.00E+00 ir: 8.75E-15 iu: 0.00E+00 rsn:   0
  1 2r: 1.50E-13 2x: 7.54E+06 2u: 3.32E-10 ir: 8.75E-15 iu: 7.68E-12 rsn: stol

 Step     85 Time=  3.30000E+01 Dt=  1.00000E+00 [y] conv_reason: 4
  newton =   1 [     108] linear =    36 [     12272] cuts =  0 [   0]
  --> SNES Linear/Non-Linear Iterations = 36 / 1
  --> SNES Residual: 0.150291E-12 0.225662E-16 0.874980E-14
  --> max change: dpmx=   1.4552E-11

 --> appending to hdf5 output file: 2D_flow-steady-state.h5
      0.04 Seconds to write HDF5 file.

== RICHARDS FLOW ===============================================================
  0 2r: 1.50E-13 2x: 0.00E+00 2u: 0.00E+00 ir: 8.75E-15 iu: 0.00E+00 rsn:   0
  1 2r: 1.51E-13 2x: 7.54E+06 2u: 3.32E-10 ir: 8.75E-15 iu: 7.58E-12 rsn: stol

 Step     86 Time=  3.40000E+01 Dt=  1.00000E+00 [y] conv_reason: 4
  newton =   1 [     109] linear =   135 [     12407] cuts =  0 [   0]
  --> SNES Linear/Non-Linear Iterations = 135 / 1
  --> SNES Residual: 0.151042E-12 0.226790E-16 0.874980E-14
  --> max change: dpmx=   1.4552E-11

 --> appending to hdf5 output file: 2D_flow-steady-state.h5
      0.04 Seconds to write HDF5 file.

== RICHARDS FLOW ===============================================================
  0 2r: 1.51E-13 2x: 0.00E+00 2u: 0.00E+00 ir: 8.75E-15 iu: 0.00E+00 rsn:   0
  1 2r: 1.51E-13 2x: 7.54E+06 2u: 3.31E-10 ir: 8.92E-15 iu: 7.44E-12 rsn: stol

 Step     87 Time=  3.50000E+01 Dt=  1.00000E+00 [y] conv_reason: 4
  newton =   1 [     110] linear =    90 [     12497] cuts =  0 [   0]
  --> SNES Linear/Non-Linear Iterations = 90 / 1
  --> SNES Residual: 0.150694E-12 0.226267E-16 0.892281E-14
  --> max change: dpmx=   1.4552E-11

 --> appending to hdf5 output file: 2D_flow-steady-state.h5
      0.04 Seconds to write HDF5 file.

== RICHARDS FLOW ===============================================================
  0 2r: 1.51E-13 2x: 0.00E+00 2u: 0.00E+00 ir: 8.92E-15 iu: 0.00E+00 rsn:   0
  1 2r: 1.51E-13 2x: 7.54E+06 2u: 3.31E-10 ir: 8.75E-15 iu: 7.40E-12 rsn: stol

 Step     88 Time=  3.60000E+01 Dt=  1.00000E+00 [y] conv_reason: 4
  newton =   1 [     111] linear =    90 [     12587] cuts =  0 [   0]
  --> SNES Linear/Non-Linear Iterations = 90 / 1
  --> SNES Residual: 0.150908E-12 0.226589E-16 0.874980E-14
  --> max change: dpmx=   1.4552E-11

 --> appending to hdf5 output file: 2D_flow-steady-state.h5
      0.04 Seconds to write HDF5 file.

== RICHARDS FLOW ===============================================================
  0 2r: 1.51E-13 2x: 0.00E+00 2u: 0.00E+00 ir: 8.75E-15 iu: 0.00E+00 rsn:   0
  1 2r: 1.50E-13 2x: 7.54E+06 2u: 3.31E-10 ir: 8.75E-15 iu: 7.74E-12 rsn: stol

 Step     89 Time=  3.70000E+01 Dt=  1.00000E+00 [y] conv_reason: 4
  newton =   1 [     112] linear =    41 [     12628] cuts =  0 [   0]
  --> SNES Linear/Non-Linear Iterations = 41 / 1
  --> SNES Residual: 0.149579E-12 0.224593E-16 0.874980E-14
  --> max change: dpmx=   1.4552E-11

 --> appending to hdf5 output file: 2D_flow-steady-state.h5
      0.04 Seconds to write HDF5 file.

== RICHARDS FLOW ===============================================================
  0 2r: 1.50E-13 2x: 0.00E+00 2u: 0.00E+00 ir: 8.75E-15 iu: 0.00E+00 rsn:   0
  1 2r: 1.52E-13 2x: 7.54E+06 2u: 3.33E-10 ir: 8.75E-15 iu: 7.98E-12 rsn: stol

 Step     90 Time=  3.80000E+01 Dt=  1.00000E+00 [y] conv_reason: 4
  newton =   1 [     113] linear =   131 [     12759] cuts =  0 [   0]
  --> SNES Linear/Non-Linear Iterations = 131 / 1
  --> SNES Residual: 0.151654E-12 0.227708E-16 0.874980E-14
  --> max change: dpmx=   1.4552E-11

 --> appending to hdf5 output file: 2D_flow-steady-state.h5
      0.04 Seconds to write HDF5 file.

== RICHARDS FLOW ===============================================================
  0 2r: 1.52E-13 2x: 0.00E+00 2u: 0.00E+00 ir: 8.75E-15 iu: 0.00E+00 rsn:   0
  1 2r: 1.49E-13 2x: 7.54E+06 2u: 3.31E-10 ir: 8.92E-15 iu: 7.42E-12 rsn: stol

 Step     91 Time=  3.90000E+01 Dt=  1.00000E+00 [y] conv_reason: 4
  newton =   1 [     114] linear =   116 [     12875] cuts =  0 [   0]
  --> SNES Linear/Non-Linear Iterations = 116 / 1
  --> SNES Residual: 0.149483E-12 0.224449E-16 0.892281E-14
  --> max change: dpmx=   1.4552E-11

 --> appending to hdf5 output file: 2D_flow-steady-state.h5
      0.04 Seconds to write HDF5 file.

== RICHARDS FLOW ===============================================================
  0 2r: 1.49E-13 2x: 0.00E+00 2u: 0.00E+00 ir: 8.92E-15 iu: 0.00E+00 rsn:   0
  1 2r: 1.49E-13 2x: 7.54E+06 2u: 3.31E-10 ir: 8.92E-15 iu: 7.70E-12 rsn: stol

 Step     92 Time=  4.00000E+01 Dt=  1.00000E+00 [y] conv_reason: 4
  newton =   1 [     115] linear =    39 [     12914] cuts =  0 [   0]
  --> SNES Linear/Non-Linear Iterations = 39 / 1
  --> SNES Residual: 0.148531E-12 0.223019E-16 0.892281E-14
  --> max change: dpmx=   1.4552E-11

 --> appending to hdf5 output file: 2D_flow-steady-state.h5
      0.04 Seconds to write HDF5 file.

== RICHARDS FLOW ===============================================================
  0 2r: 1.49E-13 2x: 0.00E+00 2u: 0.00E+00 ir: 8.92E-15 iu: 0.00E+00 rsn:   0
  1 2r: 1.51E-13 2x: 7.54E+06 2u: 3.32E-10 ir: 8.75E-15 iu: 7.70E-12 rsn: stol

 Step     93 Time=  4.10000E+01 Dt=  1.00000E+00 [y] conv_reason: 4
  newton =   1 [     116] linear =   121 [     13035] cuts =  0 [   0]
  --> SNES Linear/Non-Linear Iterations = 121 / 1
  --> SNES Residual: 0.151073E-12 0.226837E-16 0.874980E-14
  --> max change: dpmx=   1.4552E-11

 --> appending to hdf5 output file: 2D_flow-steady-state.h5
      0.04 Seconds to write HDF5 file.

== RICHARDS FLOW ===============================================================
  0 2r: 1.51E-13 2x: 0.00E+00 2u: 0.00E+00 ir: 8.75E-15 iu: 0.00E+00 rsn:   0
  1 2r: 1.50E-13 2x: 7.54E+06 2u: 3.31E-10 ir: 8.92E-15 iu: 7.38E-12 rsn: stol

 Step     94 Time=  4.20000E+01 Dt=  1.00000E+00 [y] conv_reason: 4
  newton =   1 [     117] linear =   121 [     13156] cuts =  0 [   0]
  --> SNES Linear/Non-Linear Iterations = 121 / 1
  --> SNES Residual: 0.150487E-12 0.225956E-16 0.892281E-14
  --> max change: dpmx=   1.4552E-11

 --> appending to hdf5 output file: 2D_flow-steady-state.h5
      0.04 Seconds to write HDF5 file.

== RICHARDS FLOW ===============================================================
  0 2r: 1.50E-13 2x: 0.00E+00 2u: 0.00E+00 ir: 8.92E-15 iu: 0.00E+00 rsn:   0
  1 2r: 1.49E-13 2x: 7.54E+06 2u: 3.31E-10 ir: 8.92E-15 iu: 7.69E-12 rsn: stol

 Step     95 Time=  4.30000E+01 Dt=  1.00000E+00 [y] conv_reason: 4
  newton =   1 [     118] linear =    40 [     13196] cuts =  0 [   0]
  --> SNES Linear/Non-Linear Iterations = 40 / 1
  --> SNES Residual: 0.149123E-12 0.223908E-16 0.892281E-14
  --> max change: dpmx=   1.4552E-11

 --> appending to hdf5 output file: 2D_flow-steady-state.h5
      0.04 Seconds to write HDF5 file.

== RICHARDS FLOW ===============================================================
  0 2r: 1.49E-13 2x: 0.00E+00 2u: 0.00E+00 ir: 8.92E-15 iu: 0.00E+00 rsn:   0
  1 2r: 1.51E-13 2x: 7.54E+06 2u: 3.32E-10 ir: 8.75E-15 iu: 7.84E-12 rsn: stol

 Step     96 Time=  4.40000E+01 Dt=  1.00000E+00 [y] conv_reason: 4
  newton =   1 [     119] linear =   201 [     13397] cuts =  0 [   0]
  --> SNES Linear/Non-Linear Iterations = 201 / 1
  --> SNES Residual: 0.150861E-12 0.226518E-16 0.874980E-14
  --> max change: dpmx=   1.4552E-11

 --> appending to hdf5 output file: 2D_flow-steady-state.h5
      0.04 Seconds to write HDF5 file.

== RICHARDS FLOW ===============================================================
  0 2r: 1.51E-13 2x: 0.00E+00 2u: 0.00E+00 ir: 8.75E-15 iu: 0.00E+00 rsn:   0
  1 2r: 1.49E-13 2x: 7.54E+06 2u: 3.31E-10 ir: 8.92E-15 iu: 7.49E-12 rsn: stol

 Step     97 Time=  4.50000E+01 Dt=  1.00000E+00 [y] conv_reason: 4
  newton =   1 [     120] linear =    97 [     13494] cuts =  0 [   0]
  --> SNES Linear/Non-Linear Iterations = 97 / 1
  --> SNES Residual: 0.149244E-12 0.224090E-16 0.892281E-14
  --> max change: dpmx=   1.4552E-11

 --> appending to hdf5 output file: 2D_flow-steady-state.h5
      0.04 Seconds to write HDF5 file.

== RICHARDS FLOW ===============================================================
  0 2r: 1.49E-13 2x: 0.00E+00 2u: 0.00E+00 ir: 8.92E-15 iu: 0.00E+00 rsn:   0
  1 2r: 1.51E-13 2x: 7.54E+06 2u: 3.31E-10 ir: 8.75E-15 iu: 7.50E-12 rsn: stol

 Step     98 Time=  4.60000E+01 Dt=  1.00000E+00 [y] conv_reason: 4
  newton =   1 [     121] linear =    77 [     13571] cuts =  0 [   0]
  --> SNES Linear/Non-Linear Iterations = 77 / 1
  --> SNES Residual: 0.150657E-12 0.226211E-16 0.874980E-14
  --> max change: dpmx=   1.4552E-11

 --> appending to hdf5 output file: 2D_flow-steady-state.h5
      0.04 Seconds to write HDF5 file.

== RICHARDS FLOW ===============================================================
  0 2r: 1.51E-13 2x: 0.00E+00 2u: 0.00E+00 ir: 8.75E-15 iu: 0.00E+00 rsn:   0
  1 2r: 1.49E-13 2x: 7.54E+06 2u: 3.31E-10 ir: 8.75E-15 iu: 7.63E-12 rsn: stol

 Step     99 Time=  4.70000E+01 Dt=  1.00000E+00 [y] conv_reason: 4
  newton =   1 [     122] linear =    53 [     13624] cuts =  0 [   0]
  --> SNES Linear/Non-Linear Iterations = 53 / 1
  --> SNES Residual: 0.149434E-12 0.224375E-16 0.874980E-14
  --> max change: dpmx=   1.4552E-11

 --> appending to hdf5 output file: 2D_flow-steady-state.h5
      0.03 Seconds to write HDF5 file.

== RICHARDS FLOW ===============================================================
  0 2r: 1.49E-13 2x: 0.00E+00 2u: 0.00E+00 ir: 8.75E-15 iu: 0.00E+00 rsn:   0
  1 2r: 1.51E-13 2x: 7.54E+06 2u: 3.32E-10 ir: 8.75E-15 iu: 7.72E-12 rsn: stol

 Step    100 Time=  4.80000E+01 Dt=  1.00000E+00 [y] conv_reason: 4
  newton =   1 [     123] linear =   130 [     13754] cuts =  0 [   0]
  --> SNES Linear/Non-Linear Iterations = 130 / 1
  --> SNES Residual: 0.150785E-12 0.226404E-16 0.874980E-14
  --> max change: dpmx=   1.4552E-11

 --> appending to hdf5 output file: 2D_flow-steady-state.h5
      0.05 Seconds to write HDF5 file.

== RICHARDS FLOW ===============================================================
  0 2r: 1.51E-13 2x: 0.00E+00 2u: 0.00E+00 ir: 8.75E-15 iu: 0.00E+00 rsn:   0
  1 2r: 1.51E-13 2x: 7.54E+06 2u: 3.31E-10 ir: 8.92E-15 iu: 7.30E-12 rsn: stol

 Step    101 Time=  4.90000E+01 Dt=  1.00000E+00 [y] conv_reason: 4
  newton =   1 [     124] linear =   124 [     13878] cuts =  0 [   0]
  --> SNES Linear/Non-Linear Iterations = 124 / 1
  --> SNES Residual: 0.151148E-12 0.226949E-16 0.892281E-14
  --> max change: dpmx=   1.4552E-11

 --> appending to hdf5 output file: 2D_flow-steady-state.h5
      0.04 Seconds to write HDF5 file.

== RICHARDS FLOW ===============================================================
  0 2r: 1.51E-13 2x: 0.00E+00 2u: 0.00E+00 ir: 8.92E-15 iu: 0.00E+00 rsn:   0
  1 2r: 1.51E-13 2x: 7.54E+06 2u: 3.31E-10 ir: 8.75E-15 iu: 7.33E-12 rsn: stol

 Step    102 Time=  5.00000E+01 Dt=  1.00000E+00 [y] conv_reason: 4
  newton =   1 [     125] linear =    98 [     13976] cuts =  0 [   0]
  --> SNES Linear/Non-Linear Iterations = 98 / 1
  --> SNES Residual: 0.150750E-12 0.226351E-16 0.874980E-14
  --> max change: dpmx=   1.4552E-11

 --> appending to hdf5 output file: 2D_flow-steady-state.h5
      0.04 Seconds to write HDF5 file.

== RICHARDS FLOW ===============================================================
  0 2r: 1.51E-13 2x: 0.00E+00 2u: 0.00E+00 ir: 8.75E-15 iu: 0.00E+00 rsn:   0
  1 2r: 1.51E-13 2x: 7.54E+06 2u: 3.31E-10 ir: 8.92E-15 iu: 7.38E-12 rsn: stol

 Step    103 Time=  5.10000E+01 Dt=  1.00000E+00 [y] conv_reason: 4
  newton =   1 [     126] linear =   128 [     14104] cuts =  0 [   0]
  --> SNES Linear/Non-Linear Iterations = 128 / 1
  --> SNES Residual: 0.151031E-12 0.226773E-16 0.892281E-14
  --> max change: dpmx=   1.4552E-11

 --> appending to hdf5 output file: 2D_flow-steady-state.h5
      0.04 Seconds to write HDF5 file.

== RICHARDS FLOW ===============================================================
  0 2r: 1.51E-13 2x: 0.00E+00 2u: 0.00E+00 ir: 8.92E-15 iu: 0.00E+00 rsn:   0
  1 2r: 1.50E-13 2x: 7.54E+06 2u: 3.31E-10 ir: 8.75E-15 iu: 7.69E-12 rsn: stol

 Step    104 Time=  5.20000E+01 Dt=  1.00000E+00 [y] conv_reason: 4
  newton =   1 [     127] linear =    43 [     14147] cuts =  0 [   0]
  --> SNES Linear/Non-Linear Iterations = 43 / 1
  --> SNES Residual: 0.149745E-12 0.224842E-16 0.874980E-14
  --> max change: dpmx=   1.4552E-11

 --> appending to hdf5 output file: 2D_flow-steady-state.h5
      0.04 Seconds to write HDF5 file.

== RICHARDS FLOW ===============================================================
  0 2r: 1.50E-13 2x: 0.00E+00 2u: 0.00E+00 ir: 8.75E-15 iu: 0.00E+00 rsn:   0
  1 2r: 1.51E-13 2x: 7.54E+06 2u: 3.33E-10 ir: 8.75E-15 iu: 7.86E-12 rsn: stol

 Step    105 Time=  5.30000E+01 Dt=  1.00000E+00 [y] conv_reason: 4
  newton =   1 [     128] linear =   133 [     14280] cuts =  0 [   0]
  --> SNES Linear/Non-Linear Iterations = 133 / 1
  --> SNES Residual: 0.151266E-12 0.227126E-16 0.874980E-14
  --> max change: dpmx=   1.4552E-11

 --> appending to hdf5 output file: 2D_flow-steady-state.h5
      0.04 Seconds to write HDF5 file.

== RICHARDS FLOW ===============================================================
  0 2r: 1.51E-13 2x: 0.00E+00 2u: 0.00E+00 ir: 8.75E-15 iu: 0.00E+00 rsn:   0
  1 2r: 1.50E-13 2x: 7.54E+06 2u: 3.31E-10 ir: 8.75E-15 iu: 7.68E-12 rsn: stol

 Step    106 Time=  5.40000E+01 Dt=  1.00000E+00 [y] conv_reason: 4
  newton =   1 [     129] linear =    34 [     14314] cuts =  0 [   0]
  --> SNES Linear/Non-Linear Iterations = 34 / 1
  --> SNES Residual: 0.150385E-12 0.225803E-16 0.874980E-14
  --> max change: dpmx=   1.4552E-11

 --> appending to hdf5 output file: 2D_flow-steady-state.h5
      0.03 Seconds to write HDF5 file.

== RICHARDS FLOW ===============================================================
  0 2r: 1.50E-13 2x: 0.00E+00 2u: 0.00E+00 ir: 8.75E-15 iu: 0.00E+00 rsn:   0
  1 2r: 1.51E-13 2x: 7.54E+06 2u: 3.31E-10 ir: 8.75E-15 iu: 7.42E-12 rsn: stol

 Step    107 Time=  5.50000E+01 Dt=  1.00000E+00 [y] conv_reason: 4
  newton =   1 [     130] linear =    97 [     14411] cuts =  0 [   0]
  --> SNES Linear/Non-Linear Iterations = 97 / 1
  --> SNES Residual: 0.151220E-12 0.227057E-16 0.874980E-14
  --> max change: dpmx=   1.4552E-11

 --> appending to hdf5 output file: 2D_flow-steady-state.h5
      0.04 Seconds to write HDF5 file.

== RICHARDS FLOW ===============================================================
  0 2r: 1.51E-13 2x: 0.00E+00 2u: 0.00E+00 ir: 8.75E-15 iu: 0.00E+00 rsn:   0
  1 2r: 1.50E-13 2x: 7.54E+06 2u: 3.31E-10 ir: 8.75E-15 iu: 7.73E-12 rsn: stol

 Step    108 Time=  5.60000E+01 Dt=  1.00000E+00 [y] conv_reason: 4
  newton =   1 [     131] linear =    52 [     14463] cuts =  0 [   0]
  --> SNES Linear/Non-Linear Iterations = 52 / 1
  --> SNES Residual: 0.149622E-12 0.224657E-16 0.874980E-14
  --> max change: dpmx=   1.4552E-11

 --> appending to hdf5 output file: 2D_flow-steady-state.h5
      0.03 Seconds to write HDF5 file.

== RICHARDS FLOW ===============================================================
  0 2r: 1.50E-13 2x: 0.00E+00 2u: 0.00E+00 ir: 8.75E-15 iu: 0.00E+00 rsn:   0
  1 2r: 1.51E-13 2x: 7.54E+06 2u: 3.34E-10 ir: 8.75E-15 iu: 8.04E-12 rsn: stol

 Step    109 Time=  5.70000E+01 Dt=  1.00000E+00 [y] conv_reason: 4
  newton =   1 [     132] linear =   136 [     14599] cuts =  0 [   0]
  --> SNES Linear/Non-Linear Iterations = 136 / 1
  --> SNES Residual: 0.151442E-12 0.227390E-16 0.874980E-14
  --> max change: dpmx=   1.4552E-11

 --> appending to hdf5 output file: 2D_flow-steady-state.h5
      0.03 Seconds to write HDF5 file.

== RICHARDS FLOW ===============================================================
  0 2r: 1.51E-13 2x: 0.00E+00 2u: 0.00E+00 ir: 8.75E-15 iu: 0.00E+00 rsn:   0
  1 2r: 1.50E-13 2x: 7.54E+06 2u: 3.32E-10 ir: 8.75E-15 iu: 7.62E-12 rsn: stol

 Step    110 Time=  5.80000E+01 Dt=  1.00000E+00 [y] conv_reason: 4
  newton =   1 [     133] linear =    59 [     14658] cuts =  0 [   0]
  --> SNES Linear/Non-Linear Iterations = 59 / 1
  --> SNES Residual: 0.149956E-12 0.225159E-16 0.874980E-14
  --> max change: dpmx=   1.4552E-11

 --> appending to hdf5 output file: 2D_flow-steady-state.h5
      0.04 Seconds to write HDF5 file.

== RICHARDS FLOW ===============================================================
  0 2r: 1.50E-13 2x: 0.00E+00 2u: 0.00E+00 ir: 8.75E-15 iu: 0.00E+00 rsn:   0
  1 2r: 1.51E-13 2x: 7.54E+06 2u: 3.31E-10 ir: 8.75E-15 iu: 7.45E-12 rsn: stol

 Step    111 Time=  5.90000E+01 Dt=  1.00000E+00 [y] conv_reason: 4
  newton =   1 [     134] linear =    87 [     14745] cuts =  0 [   0]
  --> SNES Linear/Non-Linear Iterations = 87 / 1
  --> SNES Residual: 0.151378E-12 0.227295E-16 0.874980E-14
  --> max change: dpmx=   1.4552E-11

 --> appending to hdf5 output file: 2D_flow-steady-state.h5
      0.04 Seconds to write HDF5 file.

== RICHARDS FLOW ===============================================================
  0 2r: 1.51E-13 2x: 0.00E+00 2u: 0.00E+00 ir: 8.75E-15 iu: 0.00E+00 rsn:   0
  1 2r: 1.51E-13 2x: 7.54E+06 2u: 3.31E-10 ir: 8.75E-15 iu: 7.39E-12 rsn: stol

 Step    112 Time=  6.00000E+01 Dt=  1.00000E+00 [y] conv_reason: 4
  newton =   1 [     135] linear =    85 [     14830] cuts =  0 [   0]
  --> SNES Linear/Non-Linear Iterations = 85 / 1
  --> SNES Residual: 0.151073E-12 0.226837E-16 0.874980E-14
  --> max change: dpmx=   1.4552E-11

 --> appending to hdf5 output file: 2D_flow-steady-state.h5
      0.05 Seconds to write HDF5 file.

== RICHARDS FLOW ===============================================================
  0 2r: 1.51E-13 2x: 0.00E+00 2u: 0.00E+00 ir: 8.75E-15 iu: 0.00E+00 rsn:   0
  1 2r: 1.51E-13 2x: 7.54E+06 2u: 3.31E-10 ir: 8.75E-15 iu: 7.38E-12 rsn: stol

 Step    113 Time=  6.10000E+01 Dt=  1.00000E+00 [y] conv_reason: 4
  newton =   1 [     136] linear =    81 [     14911] cuts =  0 [   0]
  --> SNES Linear/Non-Linear Iterations = 81 / 1
  --> SNES Residual: 0.150582E-12 0.226099E-16 0.874980E-14
  --> max change: dpmx=   1.4552E-11

 --> appending to hdf5 output file: 2D_flow-steady-state.h5
      0.04 Seconds to write HDF5 file.

== RICHARDS FLOW ===============================================================
  0 2r: 1.51E-13 2x: 0.00E+00 2u: 0.00E+00 ir: 8.75E-15 iu: 0.00E+00 rsn:   0
  1 2r: 1.51E-13 2x: 7.54E+06 2u: 3.31E-10 ir: 8.75E-15 iu: 7.35E-12 rsn: stol

 Step    114 Time=  6.20000E+01 Dt=  1.00000E+00 [y] conv_reason: 4
  newton =   1 [     137] linear =    95 [     15006] cuts =  0 [   0]
  --> SNES Linear/Non-Linear Iterations = 95 / 1
  --> SNES Residual: 0.151330E-12 0.227222E-16 0.874980E-14
  --> max change: dpmx=   1.4552E-11

 --> appending to hdf5 output file: 2D_flow-steady-state.h5
      0.03 Seconds to write HDF5 file.

== RICHARDS FLOW ===============================================================
  0 2r: 1.51E-13 2x: 0.00E+00 2u: 0.00E+00 ir: 8.75E-15 iu: 0.00E+00 rsn:   0
  1 2r: 1.51E-13 2x: 7.54E+06 2u: 3.31E-10 ir: 8.92E-15 iu: 7.39E-12 rsn: stol

 Step    115 Time=  6.30000E+01 Dt=  1.00000E+00 [y] conv_reason: 4
  newton =   1 [     138] linear =    84 [     15090] cuts =  0 [   0]
  --> SNES Linear/Non-Linear Iterations = 84 / 1
  --> SNES Residual: 0.150956E-12 0.226660E-16 0.892281E-14
  --> max change: dpmx=   1.4552E-11

 --> appending to hdf5 output file: 2D_flow-steady-state.h5
      0.04 Seconds to write HDF5 file.

== RICHARDS FLOW ===============================================================
  0 2r: 1.51E-13 2x: 0.00E+00 2u: 0.00E+00 ir: 8.92E-15 iu: 0.00E+00 rsn:   0
  1 2r: 1.51E-13 2x: 7.54E+06 2u: 3.32E-10 ir: 8.75E-15 iu: 7.56E-12 rsn: stol

[...]
  --> max change: dpmx=   1.4552E-11

 --> appending to hdf5 output file: 2D_flow-steady-state.h5
      0.05 Seconds to write HDF5 file.

== RICHARDS FLOW ===============================================================
  0 2r: 1.51E-13 2x: 0.00E+00 2u: 0.00E+00 ir: 8.75E-15 iu: 0.00E+00 rsn:   0
  1 2r: 1.50E-13 2x: 7.54E+06 2u: 3.31E-10 ir: 8.75E-15 iu: 7.39E-12 rsn: stol

 Step    222 Time=  1.70000E+02 Dt=  1.00000E+00 [y] conv_reason: 4
  newton =   1 [     245] linear =    77 [     24656] cuts =  0 [   0]
  --> SNES Linear/Non-Linear Iterations = 77 / 1
  --> SNES Residual: 0.150435E-12 0.225878E-16 0.874980E-14
  --> max change: dpmx=   1.4552E-11

 --> appending to hdf5 output file: 2D_flow-steady-state.h5
      0.03 Seconds to write HDF5 file.

== RICHARDS FLOW ===============================================================
  0 2r: 1.50E-13 2x: 0.00E+00 2u: 0.00E+00 ir: 8.75E-15 iu: 0.00E+00 rsn:   0
  1 2r: 1.51E-13 2x: 7.54E+06 2u: 3.31E-10 ir: 8.75E-15 iu: 7.34E-12 rsn: stol

 Step    223 Time=  1.71000E+02 Dt=  1.00000E+00 [y] conv_reason: 4
  newton =   1 [     246] linear =    86 [     24742] cuts =  0 [   0]
  --> SNES Linear/Non-Linear Iterations = 86 / 1
  --> SNES Residual: 0.150737E-12 0.226332E-16 0.874980E-14
  --> max change: dpmx=   1.4552E-11

 --> appending to hdf5 output file: 2D_flow-steady-state.h5
      0.04 Seconds to write HDF5 file.

== RICHARDS FLOW ===============================================================
  0 2r: 1.51E-13 2x: 0.00E+00 2u: 0.00E+00 ir: 8.75E-15 iu: 0.00E+00 rsn:   0
  1 2r: 1.51E-13 2x: 7.54E+06 2u: 3.32E-10 ir: 8.75E-15 iu: 7.68E-12 rsn: stol

 Step    224 Time=  1.72000E+02 Dt=  1.00000E+00 [y] conv_reason: 4
  newton =   1 [     247] linear =   120 [     24862] cuts =  0 [   0]
  --> SNES Linear/Non-Linear Iterations = 120 / 1
  --> SNES Residual: 0.151499E-12 0.227476E-16 0.874980E-14
  --> max change: dpmx=   1.4552E-11

 --> appending to hdf5 output file: 2D_flow-steady-state.h5
      0.04 Seconds to write HDF5 file.

== RICHARDS FLOW ===============================================================
  0 2r: 1.51E-13 2x: 0.00E+00 2u: 0.00E+00 ir: 8.75E-15 iu: 0.00E+00 rsn:   0
  1 2r: 1.50E-13 2x: 7.54E+06 2u: 3.31E-10 ir: 8.75E-15 iu: 7.70E-12 rsn: stol

 Step    225 Time=  1.73000E+02 Dt=  1.00000E+00 [y] conv_reason: 4
  newton =   1 [     248] linear =    38 [     24900] cuts =  0 [   0]
  --> SNES Linear/Non-Linear Iterations = 38 / 1
  --> SNES Residual: 0.149542E-12 0.224538E-16 0.874980E-14
  --> max change: dpmx=   1.4552E-11

 --> appending to hdf5 output file: 2D_flow-steady-state.h5
      0.05 Seconds to write HDF5 file.

== RICHARDS FLOW ===============================================================
  0 2r: 1.50E-13 2x: 0.00E+00 2u: 0.00E+00 ir: 8.75E-15 iu: 0.00E+00 rsn:   0
  1 2r: 1.51E-13 2x: 7.54E+06 2u: 3.32E-10 ir: 8.75E-15 iu: 7.64E-12 rsn: stol

 Step    226 Time=  1.74000E+02 Dt=  1.00000E+00 [y] conv_reason: 4
  newton =   1 [     249] linear =   131 [     25031] cuts =  0 [   0]
  --> SNES Linear/Non-Linear Iterations = 131 / 1
  --> SNES Residual: 0.151039E-12 0.226785E-16 0.874980E-14
  --> max change: dpmx=   1.4552E-11

 --> appending to hdf5 output file: 2D_flow-steady-state.h5
      0.04 Seconds to write HDF5 file.

== RICHARDS FLOW ===============================================================
  0 2r: 1.51E-13 2x: 0.00E+00 2u: 0.00E+00 ir: 8.75E-15 iu: 0.00E+00 rsn:   0
  1 2r: 1.50E-13 2x: 7.54E+06 2u: 3.31E-10 ir: 8.75E-15 iu: 7.68E-12 rsn: stol

 Step    227 Time=  1.75000E+02 Dt=  1.00000E+00 [y] conv_reason: 4
  newton =   1 [     250] linear =    49 [     25080] cuts =  0 [   0]
  --> SNES Linear/Non-Linear Iterations = 49 / 1
  --> SNES Residual: 0.150108E-12 0.225387E-16 0.874980E-14
  --> max change: dpmx=   1.4552E-11

 --> appending to hdf5 output file: 2D_flow-steady-state.h5
      0.04 Seconds to write HDF5 file.

== RICHARDS FLOW ===============================================================
  0 2r: 1.50E-13 2x: 0.00E+00 2u: 0.00E+00 ir: 8.75E-15 iu: 0.00E+00 rsn:   0
  1 2r: 1.52E-13 2x: 7.54E+06 2u: 3.33E-10 ir: 8.75E-15 iu: 7.93E-12 rsn: stol

 Step    228 Time=  1.76000E+02 Dt=  1.00000E+00 [y] conv_reason: 4
  newton =   1 [     251] linear =   158 [     25238] cuts =  0 [   0]
  --> SNES Linear/Non-Linear Iterations = 158 / 1
  --> SNES Residual: 0.151514E-12 0.227498E-16 0.874980E-14
  --> max change: dpmx=   1.4552E-11

 --> appending to hdf5 output file: 2D_flow-steady-state.h5
      0.04 Seconds to write HDF5 file.

== RICHARDS FLOW ===============================================================
  0 2r: 1.52E-13 2x: 0.00E+00 2u: 0.00E+00 ir: 8.75E-15 iu: 0.00E+00 rsn:   0
  1 2r: 1.51E-13 2x: 7.54E+06 2u: 3.32E-10 ir: 8.75E-15 iu: 7.67E-12 rsn: stol

 Step    229 Time=  1.77000E+02 Dt=  1.00000E+00 [y] conv_reason: 4
  newton =   1 [     252] linear =    38 [     25276] cuts =  0 [   0]
  --> SNES Linear/Non-Linear Iterations = 38 / 1
  --> SNES Residual: 0.150565E-12 0.226073E-16 0.874980E-14
  --> max change: dpmx=   1.4552E-11

 --> appending to hdf5 output file: 2D_flow-steady-state.h5
      0.04 Seconds to write HDF5 file.

== RICHARDS FLOW ===============================================================
  0 2r: 1.51E-13 2x: 0.00E+00 2u: 0.00E+00 ir: 8.75E-15 iu: 0.00E+00 rsn:   0
  1 2r: 1.51E-13 2x: 7.54E+06 2u: 3.31E-10 ir: 8.75E-15 iu: 7.49E-12 rsn: stol

 Step    230 Time=  1.78000E+02 Dt=  1.00000E+00 [y] conv_reason: 4
  newton =   1 [     253] linear =    88 [     25364] cuts =  0 [   0]
  --> SNES Linear/Non-Linear Iterations = 88 / 1
  --> SNES Residual: 0.151357E-12 0.227263E-16 0.874980E-14
  --> max change: dpmx=   1.4552E-11

 --> appending to hdf5 output file: 2D_flow-steady-state.h5
      0.04 Seconds to write HDF5 file.

== RICHARDS FLOW ===============================================================
  0 2r: 1.51E-13 2x: 0.00E+00 2u: 0.00E+00 ir: 8.75E-15 iu: 0.00E+00 rsn:   0
  1 2r: 1.51E-13 2x: 7.54E+06 2u: 3.31E-10 ir: 8.75E-15 iu: 7.34E-12 rsn: stol

 Step    231 Time=  1.79000E+02 Dt=  1.00000E+00 [y] conv_reason: 4
  newton =   1 [     254] linear =   101 [     25465] cuts =  0 [   0]
  --> SNES Linear/Non-Linear Iterations = 101 / 1
  --> SNES Residual: 0.150770E-12 0.226381E-16 0.874980E-14
  --> max change: dpmx=   1.4552E-11

 --> appending to hdf5 output file: 2D_flow-steady-state.h5
      0.05 Seconds to write HDF5 file.

== RICHARDS FLOW ===============================================================
  0 2r: 1.51E-13 2x: 0.00E+00 2u: 0.00E+00 ir: 8.75E-15 iu: 0.00E+00 rsn:   0
  1 2r: 1.51E-13 2x: 7.54E+06 2u: 3.31E-10 ir: 8.75E-15 iu: 7.38E-12 rsn: stol

 Step    232 Time=  1.80000E+02 Dt=  1.00000E+00 [y] conv_reason: 4
  newton =   1 [     255] linear =    89 [     25554] cuts =  0 [   0]
  --> SNES Linear/Non-Linear Iterations = 89 / 1
  --> SNES Residual: 0.150900E-12 0.226576E-16 0.874980E-14
  --> max change: dpmx=   1.4552E-11

 --> appending to hdf5 output file: 2D_flow-steady-state.h5
      0.03 Seconds to write HDF5 file.

== RICHARDS FLOW ===============================================================
  0 2r: 1.51E-13 2x: 0.00E+00 2u: 0.00E+00 ir: 8.75E-15 iu: 0.00E+00 rsn:   0
  1 2r: 1.50E-13 2x: 7.54E+06 2u: 3.31E-10 ir: 8.75E-15 iu: 7.37E-12 rsn: stol

 Step    233 Time=  1.81000E+02 Dt=  1.00000E+00 [y] conv_reason: 4
  newton =   1 [     256] linear =    72 [     25626] cuts =  0 [   0]
  --> SNES Linear/Non-Linear Iterations = 72 / 1
  --> SNES Residual: 0.150211E-12 0.225543E-16 0.874980E-14
  --> max change: dpmx=   1.4552E-11

 --> appending to hdf5 output file: 2D_flow-steady-state.h5
      0.04 Seconds to write HDF5 file.

== RICHARDS FLOW ===============================================================
  0 2r: 1.50E-13 2x: 0.00E+00 2u: 0.00E+00 ir: 8.75E-15 iu: 0.00E+00 rsn:   0
  1 2r: 1.51E-13 2x: 7.54E+06 2u: 3.32E-10 ir: 8.75E-15 iu: 7.55E-12 rsn: stol

 Step    234 Time=  1.82000E+02 Dt=  1.00000E+00 [y] conv_reason: 4
  newton =   1 [     257] linear =   121 [     25747] cuts =  0 [   0]
  --> SNES Linear/Non-Linear Iterations = 121 / 1
  --> SNES Residual: 0.151155E-12 0.226959E-16 0.874980E-14
  --> max change: dpmx=   1.4552E-11

 --> appending to hdf5 output file: 2D_flow-steady-state.h5
      0.04 Seconds to write HDF5 file.

== RICHARDS FLOW ===============================================================
  0 2r: 1.51E-13 2x: 0.00E+00 2u: 0.00E+00 ir: 8.75E-15 iu: 0.00E+00 rsn:   0
  1 2r: 1.51E-13 2x: 7.54E+06 2u: 3.32E-10 ir: 8.75E-15 iu: 7.47E-12 rsn: stol

 Step    235 Time=  1.83000E+02 Dt=  1.00000E+00 [y] conv_reason: 4
  newton =   1 [     258] linear =   135 [     25882] cuts =  0 [   0]
  --> SNES Linear/Non-Linear Iterations = 135 / 1
  --> SNES Residual: 0.151274E-12 0.227138E-16 0.874980E-14
  --> max change: dpmx=   1.4552E-11

 --> appending to hdf5 output file: 2D_flow-steady-state.h5
      0.04 Seconds to write HDF5 file.

== RICHARDS FLOW ===============================================================
  0 2r: 1.51E-13 2x: 0.00E+00 2u: 0.00E+00 ir: 8.75E-15 iu: 0.00E+00 rsn:   0
  1 2r: 1.50E-13 2x: 7.54E+06 2u: 3.31E-10 ir: 8.75E-15 iu: 7.68E-12 rsn: stol

 Step    236 Time=  1.84000E+02 Dt=  1.00000E+00 [y] conv_reason: 4
  newton =   1 [     259] linear =    44 [     25926] cuts =  0 [   0]
  --> SNES Linear/Non-Linear Iterations = 44 / 1
  --> SNES Residual: 0.149873E-12 0.225035E-16 0.874980E-14
  --> max change: dpmx=   1.4552E-11

 --> appending to hdf5 output file: 2D_flow-steady-state.h5
      0.03 Seconds to write HDF5 file.

== RICHARDS FLOW ===============================================================
  0 2r: 1.50E-13 2x: 0.00E+00 2u: 0.00E+00 ir: 8.75E-15 iu: 0.00E+00 rsn:   0
  1 2r: 1.52E-13 2x: 7.54E+06 2u: 3.32E-10 ir: 8.75E-15 iu: 7.69E-12 rsn: stol

 Step    237 Time=  1.85000E+02 Dt=  1.00000E+00 [y] conv_reason: 4
  newton =   1 [     260] linear =   135 [     26061] cuts =  0 [   0]
  --> SNES Linear/Non-Linear Iterations = 135 / 1
  --> SNES Residual: 0.151570E-12 0.227583E-16 0.874980E-14
  --> max change: dpmx=   1.4552E-11

 --> appending to hdf5 output file: 2D_flow-steady-state.h5
      0.04 Seconds to write HDF5 file.

== RICHARDS FLOW ===============================================================
  0 2r: 1.52E-13 2x: 0.00E+00 2u: 0.00E+00 ir: 8.75E-15 iu: 0.00E+00 rsn:   0
  1 2r: 1.50E-13 2x: 7.54E+06 2u: 3.31E-10 ir: 8.75E-15 iu: 7.70E-12 rsn: stol

 Step    238 Time=  1.86000E+02 Dt=  1.00000E+00 [y] conv_reason: 4
  newton =   1 [     261] linear =    38 [     26099] cuts =  0 [   0]
  --> SNES Linear/Non-Linear Iterations = 38 / 1
  --> SNES Residual: 0.149809E-12 0.224938E-16 0.874980E-14
  --> max change: dpmx=   1.4552E-11

 --> appending to hdf5 output file: 2D_flow-steady-state.h5
      0.03 Seconds to write HDF5 file.

== RICHARDS FLOW ===============================================================
  0 2r: 1.50E-13 2x: 0.00E+00 2u: 0.00E+00 ir: 8.75E-15 iu: 0.00E+00 rsn:   0
  1 2r: 1.51E-13 2x: 7.54E+06 2u: 3.33E-10 ir: 8.75E-15 iu: 7.82E-12 rsn: stol

 Step    239 Time=  1.87000E+02 Dt=  1.00000E+00 [y] conv_reason: 4
  newton =   1 [     262] linear =   147 [     26246] cuts =  0 [   0]
  --> SNES Linear/Non-Linear Iterations = 147 / 1
  --> SNES Residual: 0.151011E-12 0.226743E-16 0.874980E-14
  --> max change: dpmx=   1.4552E-11

 --> appending to hdf5 output file: 2D_flow-steady-state.h5
      0.04 Seconds to write HDF5 file.

== RICHARDS FLOW ===============================================================
  0 2r: 1.51E-13 2x: 0.00E+00 2u: 0.00E+00 ir: 8.75E-15 iu: 0.00E+00 rsn:   0
  1 2r: 1.50E-13 2x: 7.54E+06 2u: 3.32E-10 ir: 8.75E-15 iu: 7.62E-12 rsn: stol

 Step    240 Time=  1.88000E+02 Dt=  1.00000E+00 [y] conv_reason: 4
  newton =   1 [     263] linear =    42 [     26288] cuts =  0 [   0]
  --> SNES Linear/Non-Linear Iterations = 42 / 1
  --> SNES Residual: 0.150423E-12 0.225860E-16 0.874980E-14
  --> max change: dpmx=   1.4552E-11

 --> appending to hdf5 output file: 2D_flow-steady-state.h5
      0.04 Seconds to write HDF5 file.

== RICHARDS FLOW ===============================================================
  0 2r: 1.50E-13 2x: 0.00E+00 2u: 0.00E+00 ir: 8.75E-15 iu: 0.00E+00 rsn:   0
  1 2r: 1.50E-13 2x: 7.54E+06 2u: 3.31E-10 ir: 8.92E-15 iu: 7.46E-12 rsn: stol

 Step    241 Time=  1.89000E+02 Dt=  1.00000E+00 [y] conv_reason: 4
  newton =   1 [     264] linear =    87 [     26375] cuts =  0 [   0]
  --> SNES Linear/Non-Linear Iterations = 87 / 1
  --> SNES Residual: 0.150358E-12 0.225763E-16 0.892281E-14
  --> max change: dpmx=   1.4552E-11

 --> appending to hdf5 output file: 2D_flow-steady-state.h5
      0.04 Seconds to write HDF5 file.

== RICHARDS FLOW ===============================================================
  0 2r: 1.50E-13 2x: 0.00E+00 2u: 0.00E+00 ir: 8.92E-15 iu: 0.00E+00 rsn:   0
  1 2r: 1.52E-13 2x: 7.54E+06 2u: 3.31E-10 ir: 8.75E-15 iu: 7.41E-12 rsn: stol

 Step    242 Time=  1.90000E+02 Dt=  1.00000E+00 [y] conv_reason: 4
  newton =   1 [     265] linear =    88 [     26463] cuts =  0 [   0]
  --> SNES Linear/Non-Linear Iterations = 88 / 1
  --> SNES Residual: 0.151607E-12 0.227638E-16 0.874980E-14
  --> max change: dpmx=   1.4552E-11

 --> appending to hdf5 output file: 2D_flow-steady-state.h5
      0.04 Seconds to write HDF5 file.

== RICHARDS FLOW ===============================================================
  0 2r: 1.52E-13 2x: 0.00E+00 2u: 0.00E+00 ir: 8.75E-15 iu: 0.00E+00 rsn:   0
  1 2r: 1.51E-13 2x: 7.54E+06 2u: 3.31E-10 ir: 8.92E-15 iu: 7.37E-12 rsn: stol

 Step    243 Time=  1.91000E+02 Dt=  1.00000E+00 [y] conv_reason: 4
  newton =   1 [     266] linear =    89 [     26552] cuts =  0 [   0]
  --> SNES Linear/Non-Linear Iterations = 89 / 1
  --> SNES Residual: 0.150733E-12 0.226325E-16 0.892281E-14
  --> max change: dpmx=   1.4552E-11

 --> appending to hdf5 output file: 2D_flow-steady-state.h5
      0.04 Seconds to write HDF5 file.

== RICHARDS FLOW ===============================================================
  0 2r: 1.51E-13 2x: 0.00E+00 2u: 0.00E+00 ir: 8.92E-15 iu: 0.00E+00 rsn:   0
  1 2r: 1.50E-13 2x: 7.54E+06 2u: 3.31E-10 ir: 8.75E-15 iu: 7.70E-12 rsn: stol

 Step    244 Time=  1.92000E+02 Dt=  1.00000E+00 [y] conv_reason: 4
  newton =   1 [     267] linear =    50 [     26602] cuts =  0 [   0]
  --> SNES Linear/Non-Linear Iterations = 50 / 1
  --> SNES Residual: 0.149515E-12 0.224497E-16 0.874980E-14
  --> max change: dpmx=   1.4552E-11

 --> appending to hdf5 output file: 2D_flow-steady-state.h5
      0.03 Seconds to write HDF5 file.

== RICHARDS FLOW ===============================================================
  0 2r: 1.50E-13 2x: 0.00E+00 2u: 0.00E+00 ir: 8.75E-15 iu: 0.00E+00 rsn:   0
  1 2r: 1.52E-13 2x: 7.54E+06 2u: 3.33E-10 ir: 8.75E-15 iu: 7.99E-12 rsn: stol

 Step    245 Time=  1.93000E+02 Dt=  1.00000E+00 [y] conv_reason: 4
  newton =   1 [     268] linear =   161 [     26763] cuts =  0 [   0]
  --> SNES Linear/Non-Linear Iterations = 161 / 1
  --> SNES Residual: 0.151600E-12 0.227627E-16 0.874980E-14
  --> max change: dpmx=   1.4552E-11

 --> appending to hdf5 output file: 2D_flow-steady-state.h5
      0.04 Seconds to write HDF5 file.

== RICHARDS FLOW ===============================================================
  0 2r: 1.52E-13 2x: 0.00E+00 2u: 0.00E+00 ir: 8.75E-15 iu: 0.00E+00 rsn:   0
  1 2r: 1.50E-13 2x: 7.54E+06 2u: 3.31E-10 ir: 8.75E-15 iu: 7.70E-12 rsn: stol

 Step    246 Time=  1.94000E+02 Dt=  1.00000E+00 [y] conv_reason: 4
  newton =   1 [     269] linear =    36 [     26799] cuts =  0 [   0]
  --> SNES Linear/Non-Linear Iterations = 36 / 1
  --> SNES Residual: 0.149810E-12 0.224940E-16 0.874980E-14
  --> max change: dpmx=   1.4552E-11

 --> appending to hdf5 output file: 2D_flow-steady-state.h5
      0.11 Seconds to write HDF5 file.

== RICHARDS FLOW ===============================================================
  0 2r: 1.50E-13 2x: 0.00E+00 2u: 0.00E+00 ir: 8.75E-15 iu: 0.00E+00 rsn:   0
  1 2r: 1.51E-13 2x: 7.54E+06 2u: 3.32E-10 ir: 8.75E-15 iu: 7.82E-12 rsn: stol

 Step    247 Time=  1.95000E+02 Dt=  1.00000E+00 [y] conv_reason: 4
  newton =   1 [     270] linear =   153 [     26952] cuts =  0 [   0]
  --> SNES Linear/Non-Linear Iterations = 153 / 1
  --> SNES Residual: 0.151237E-12 0.227082E-16 0.874980E-14
  --> max change: dpmx=   1.4552E-11

 --> appending to hdf5 output file: 2D_flow-steady-state.h5
      0.04 Seconds to write HDF5 file.

== RICHARDS FLOW ===============================================================
  0 2r: 1.51E-13 2x: 0.00E+00 2u: 0.00E+00 ir: 8.75E-15 iu: 0.00E+00 rsn:   0
  1 2r: 1.50E-13 2x: 7.54E+06 2u: 3.32E-10 ir: 8.75E-15 iu: 7.67E-12 rsn: stol

 Step    248 Time=  1.96000E+02 Dt=  1.00000E+00 [y] conv_reason: 4
  newton =   1 [     271] linear =    37 [     26989] cuts =  0 [   0]
  --> SNES Linear/Non-Linear Iterations = 37 / 1
  --> SNES Residual: 0.150390E-12 0.225810E-16 0.874980E-14
  --> max change: dpmx=   1.4552E-11

 --> appending to hdf5 output file: 2D_flow-steady-state.h5
      0.04 Seconds to write HDF5 file.

== RICHARDS FLOW ===============================================================
  0 2r: 1.50E-13 2x: 0.00E+00 2u: 0.00E+00 ir: 8.75E-15 iu: 0.00E+00 rsn:   0
  1 2r: 1.51E-13 2x: 7.54E+06 2u: 3.31E-10 ir: 8.75E-15 iu: 7.45E-12 rsn: stol

 Step    249 Time=  1.97000E+02 Dt=  1.00000E+00 [y] conv_reason: 4
  newton =   1 [     272] linear =    91 [     27080] cuts =  0 [   0]
  --> SNES Linear/Non-Linear Iterations = 91 / 1
  --> SNES Residual: 0.150667E-12 0.226227E-16 0.874980E-14
  --> max change: dpmx=   1.4552E-11

 --> appending to hdf5 output file: 2D_flow-steady-state.h5
      0.04 Seconds to write HDF5 file.

== RICHARDS FLOW ===============================================================
  0 2r: 1.51E-13 2x: 0.00E+00 2u: 0.00E+00 ir: 8.75E-15 iu: 0.00E+00 rsn:   0
  1 2r: 1.51E-13 2x: 7.54E+06 2u: 3.31E-10 ir: 8.75E-15 iu: 7.34E-12 rsn: stol

 Step    250 Time=  1.98000E+02 Dt=  1.00000E+00 [y] conv_reason: 4
  newton =   1 [     273] linear =    89 [     27169] cuts =  0 [   0]
  --> SNES Linear/Non-Linear Iterations = 89 / 1
  --> SNES Residual: 0.151040E-12 0.226787E-16 0.874980E-14
  --> max change: dpmx=   1.4552E-11

 --> appending to hdf5 output file: 2D_flow-steady-state.h5
      0.05 Seconds to write HDF5 file.

== RICHARDS FLOW ===============================================================
  0 2r: 1.51E-13 2x: 0.00E+00 2u: 0.00E+00 ir: 8.75E-15 iu: 0.00E+00 rsn:   0
  1 2r: 1.51E-13 2x: 7.54E+06 2u: 3.31E-10 ir: 8.75E-15 iu: 7.35E-12 rsn: stol

 Step    251 Time=  1.99000E+02 Dt=  1.00000E+00 [y] conv_reason: 4
  newton =   1 [     274] linear =    92 [     27261] cuts =  0 [   0]
  --> SNES Linear/Non-Linear Iterations = 92 / 1
  --> SNES Residual: 0.151106E-12 0.226886E-16 0.874980E-14
  --> max change: dpmx=   1.4552E-11

 --> appending to hdf5 output file: 2D_flow-steady-state.h5
      0.04 Seconds to write HDF5 file.

== RICHARDS FLOW ===============================================================
  0 2r: 1.51E-13 2x: 0.00E+00 2u: 0.00E+00 ir: 8.75E-15 iu: 0.00E+00 rsn:   0
  1 2r: 1.50E-13 2x: 7.54E+06 2u: 3.31E-10 ir: 8.75E-15 iu: 7.39E-12 rsn: stol

 Step    252 Time=  2.00000E+02 Dt=  1.00000E+00 [y] conv_reason: 4
  newton =   1 [     275] linear =    77 [     27338] cuts =  0 [   0]
  --> SNES Linear/Non-Linear Iterations = 77 / 1
  --> SNES Residual: 0.150435E-12 0.225878E-16 0.874980E-14
  --> max change: dpmx=   1.4552E-11

 --> appending to hdf5 output file: 2D_flow-steady-state.h5
      0.04 Seconds to write HDF5 file.
 --> Dump checkpoint file: 2D_flow-steady-state-restart.h5
      Seconds to write to checkpoint file:       0.10

PMCSubsurfaceFlow
 Total Time: 1.4591E+02 seconds

 FLOW TS SNES steps = 252  newton = 275  linear = 27338  cuts = 0
 FLOW TS SNES Wasted Linear Iterations = 0
 FLOW TS SNES Wasted Newton Iterations = 0
 FLOW TS SNES time = 145.0 seconds

 Wall Clock Time:  1.5554E+02 [sec]   2.5923E+00 [min]   4.3205E-02 [hr]
